REMARK  31 active torsions:
REMARK  status: ('A' for Active; 'I' for Inactive)
REMARK    1  A    between atoms: N_1  and  CA_2 
REMARK    2  A    between atoms: CA_2  and  CB_5 
REMARK    3  A    between atoms: CA_2  and  C_3 
REMARK       I    between atoms: C_3  and  N_14 
REMARK    4  A    between atoms: CB_5  and  CG_6 
REMARK    5  A    between atoms: CG_6  and  CD_7 
REMARK    6  A    between atoms: CD_7  and  CE_8 
REMARK    7  A    between atoms: CE_8  and  NZ_9 
REMARK    8  A    between atoms: N_14  and  CA_15 
REMARK    9  A    between atoms: CA_15  and  C_16 
REMARK   10  A    between atoms: CA_15  and  CB_18 
REMARK       I    between atoms: C_16  and  N_43 
REMARK   11  A    between atoms: CB_18  and  CG_19 
REMARK   12  A    between atoms: CA_30  and  CB_32 
REMARK   13  A    between atoms: CA_30  and  C_31 
REMARK   14  A    between atoms: CA_30  and  N_43 
REMARK       I    between atoms: C_31  and  N_52 
REMARK   15  A    between atoms: CB_32  and  CG_33 
REMARK   16  A    between atoms: CA_46  and  N_52 
REMARK   17  A    between atoms: CA_46  and  CB_48 
REMARK   18  A    between atoms: CA_46  and  C_47 
REMARK       I    between atoms: C_47  and  N_62 
REMARK   19  A    between atoms: CB_48  and  CG_49 
REMARK   20  A    between atoms: CG_49  and  CD_50 
REMARK   21  A    between atoms: CA_56  and  N_62 
REMARK   22  A    between atoms: CA_56  and  CB_58 
REMARK   23  A    between atoms: CA_56  and  C_57 
REMARK       I    between atoms: C_57  and  N_78 
REMARK   24  A    between atoms: CB_58  and  OG1_64 
REMARK   25  A    between atoms: CA_65  and  CB_67 
REMARK   26  A    between atoms: CA_65  and  N_78 
REMARK   27  A    between atoms: CA_65  and  C_66 
REMARK       I    between atoms: C_66  and  N_87 
REMARK   28  A    between atoms: CB_67  and  CG_68 
REMARK   29  A    between atoms: CA_81  and  N_87 
REMARK   30  A    between atoms: CA_81  and  CB_83 
REMARK   31  A    between atoms: CA_81  and  C_82 
ROOT
ATOM      1  C   TRP B   3       3.738  -4.008  -0.173  1.00  0.00     0.241 C 
ATOM      2  O   TRP B   3       4.909  -3.750  -0.448  1.00  0.00    -0.271 OA
ATOM      3  H   GLU B   4       1.805  -3.516  -0.349  1.00  0.23     0.163 HD
ATOM      4  N   GLU B   4       2.719  -3.266  -0.598  1.00  0.00    -0.346 N 
ENDROOT
BRANCH   1   5
ATOM      5  CA  TRP B   3       3.388  -5.218   0.688  1.00  0.00     0.181 C 
BRANCH   5   6
ATOM      6  CB  TRP B   3       2.953  -6.389  -0.205  1.00  0.00     0.075 C 
BRANCH   6   7
ATOM      7  CG  TRP B   3       1.526  -6.311  -0.663  1.00  0.00    -0.028 A 
ATOM      8  CD2 TRP B   3       1.046  -5.752  -1.892  1.00  0.00    -0.002 A 
ATOM      9  CE2 TRP B   3      -0.354  -5.903  -1.902  1.00  0.00     0.042 A 
ATOM     10  CE3 TRP B   3       1.663  -5.137  -2.986  1.00  0.00     0.014 A 
ATOM     11  CZ2 TRP B   3      -1.145  -5.461  -2.960  1.00  0.00     0.030 A 
ATOM     12  NE1 TRP B   3      -0.709  -6.527  -0.735  1.00  0.00    -0.365 N 
ATOM     13  CH2 TRP B   3      -0.513  -4.862  -4.015  1.00  0.00     0.002 A 
ATOM     14  CZ3 TRP B   3       0.877  -4.699  -4.035  1.00  0.00     0.001 A 
ATOM     15  HE1 TRP B   3      -1.622  -6.762  -0.467  1.00  0.23     0.165 HD
ATOM     16  CD1 TRP B   3       0.426  -6.770   0.003  1.00  0.00     0.096 A 
ENDBRANCH   6   7
ENDBRANCH   5   6
BRANCH   5  17
ATOM     17  N   TRP B   3       2.351  -4.888   1.662  1.00  0.00    -0.346 N 
ATOM     18  C   TRP B   2       2.016  -5.729   2.650  1.00  0.00     0.241 C 
ATOM     19  O   TRP B   2       2.568  -6.816   2.803  1.00  0.00    -0.271 OA
ATOM     20  H   TRP B   3       1.886  -4.027   1.592  1.00  0.23     0.163 HD
BRANCH  18  21
ATOM     21  CA  TRP B   2       0.941  -5.246   3.595  1.00  0.00     0.181 C 
BRANCH  21  22
ATOM     22  N   TRP B   2      -0.088  -6.264   3.783  1.00  0.00    -0.346 N 
ATOM     23  C   LYS B   1       0.092  -7.294   4.615  1.00  0.00     0.254 C 
ATOM     24  O   LYS B   1       1.152  -7.467   5.226  1.00  0.00    -0.271 OA
ATOM     25  H   TRP B   2      -0.933  -6.190   3.286  1.00  0.00     0.163 HD
BRANCH  23  26
ATOM     26  CA  LYS B   1      -1.058  -8.267   4.732  1.00  0.00     0.350 C 
BRANCH  26  27
ATOM     27  CB  LYS B   1      -1.448  -8.835   3.340  1.00  0.00     0.048 C 
BRANCH  27  28
ATOM     28  CG  LYS B   1      -2.450 -10.014   3.415  1.00  0.00     0.004 C 
BRANCH  28  29
ATOM     29  CD  LYS B   1      -2.847 -10.609   2.061  1.00  0.00     0.027 C 
BRANCH  29  30
ATOM     30  CE  LYS B   1      -3.849 -11.750   2.284  1.00  0.00     0.229 C 
BRANCH  30  31
ATOM     31  NZ  LYS B   1      -4.242 -12.318   0.983  1.00  0.00    -0.079 N 
ATOM     32  HZ1 LYS B   1      -3.443 -12.334   0.338  1.00  0.00     0.274 HD
ATOM     33  HZ2 LYS B   1      -4.551 -13.291   1.078  1.00  0.00     0.274 HD
ATOM     34  HZ3 LYS B   1      -4.990 -11.736   0.633  1.00  0.00     0.274 HD
ENDBRANCH  30  31
ENDBRANCH  29  30
ENDBRANCH  28  29
ENDBRANCH  27  28
ENDBRANCH  26  27
BRANCH  26  35
ATOM     35  N   LYS B   1      -2.222  -7.630   5.341  1.00  0.00     0.312 N 
ATOM     36  H   LYS B   1      -1.997  -6.610   5.561  1.00  0.00     0.359 HD
ENDBRANCH  26  35
ENDBRANCH  23  26
ENDBRANCH  21  22
BRANCH  21  37
ATOM     37  CB  TRP B   2       1.570  -4.898   4.973  1.00  0.00     0.075 C 
BRANCH  37  38
ATOM     38  CG  TRP B   2       0.626  -4.188   5.948  1.00  0.00    -0.028 A 
ATOM     39  CD1 TRP B   2      -0.156  -4.815   6.939  1.00  0.00     0.096 A 
ATOM     40  NE1 TRP B   2      -0.978  -3.892   7.613  1.00  0.00    -0.365 N 
ATOM     41  CE2 TRP B   2      -0.684  -2.680   7.006  1.00  0.00     0.042 A 
ATOM     42  HE1 TRP B   2      -1.671  -4.075   8.347  1.00  0.00     0.165 HD
ATOM     43  CZ2 TRP B   2      -1.223  -1.400   7.260  1.00  0.00     0.030 A 
ATOM     44  CD2 TRP B   2       0.290  -2.850   5.991  1.00  0.00    -0.002 A 
ATOM     45  CH2 TRP B   2      -0.775  -0.317   6.498  1.00  0.00     0.002 A 
ATOM     46  CZ3 TRP B   2       0.183  -0.490   5.489  1.00  0.00     0.001 A 
ATOM     47  CE3 TRP B   2       0.725  -1.745   5.215  1.00  0.00     0.014 A 
ENDBRANCH  37  38
ENDBRANCH  21  37
ENDBRANCH  18  21
ENDBRANCH   5  17
ENDBRANCH   1   5
BRANCH   4  48
ATOM     48  CA  GLU B   4       2.935  -2.082  -1.427  1.00  0.00     0.177 C 
BRANCH  48  49
ATOM     49  CB  GLU B   4       1.619  -1.618  -2.053  1.00  0.00     0.045 C 
BRANCH  49  50
ATOM     50  CG  GLU B   4       0.498  -1.442  -1.042  1.00  0.00     0.116 C 
BRANCH  50  51
ATOM     51  CD  GLU B   4      -0.456  -2.621  -1.013  1.00  0.00     0.172 C 
ATOM     52  OE2 GLU B   4      -0.521  -3.306   0.029  1.00  0.00    -0.648 OA
ATOM     53  OE1 GLU B   4      -1.137  -2.858  -2.032  1.00  0.00    -0.648 OA
ENDBRANCH  50  51
ENDBRANCH  49  50
ENDBRANCH  48  49
BRANCH  48  54
ATOM     54  C   GLU B   4       3.543  -0.948  -0.607  1.00  0.00     0.241 C 
ATOM     55  O   GLU B   4       3.056  -0.622   0.476  1.00  0.00    -0.271 OA
ATOM     56  N   THR B   5       4.607  -0.349  -1.134  1.00  7.70    -0.344 N 
ATOM     57  H   THR B   5       4.944  -0.656  -2.002  1.00  0.23     0.163 HD
BRANCH  56  58
ATOM     58  CA  THR B   5       5.286   0.753  -0.459  1.00  7.88     0.205 C 
BRANCH  58  59
ATOM     59  CB  THR B   5       6.709   0.344  -0.075  1.00  4.05     0.146 C 
ATOM     60  CG2 THR B   5       7.356   1.289   0.914  1.00  3.72     0.042 C 
BRANCH  59  61
ATOM     61  OG1 THR B   5       6.720  -0.951   0.499  1.00  7.31    -0.393 OA
ATOM     62  HG1 THR B   5       6.777  -1.609  -0.197  1.00  0.23     0.210 HD
ENDBRANCH  59  61
ENDBRANCH  58  59
BRANCH  58  63
ATOM     63  C   THR B   5       5.323   1.989  -1.352  1.00  7.05     0.243 C 
ATOM     64  O   THR B   5       5.874   1.955  -2.452  1.00  6.06    -0.271 OA
ATOM     65  N   TRP B   6       4.731   3.078  -0.874  1.00  0.00    -0.346 N 
ATOM     66  H   TRP B   6       4.307   3.044   0.009  1.00  0.23     0.163 HD
BRANCH  65  67
ATOM     67  CA  TRP B   6       4.694   4.322  -1.632  1.00  0.00     0.181 C 
BRANCH  67  68
ATOM     68  CB  TRP B   6       3.466   5.144  -1.238  1.00  0.00     0.075 C 
BRANCH  68  69
ATOM     69  CG  TRP B   6       2.176   4.494  -1.635  1.00  0.00    -0.028 A 
ATOM     70  CD2 TRP B   6       1.490   4.644  -2.884  1.00  0.00    -0.002 A 
ATOM     71  CE2 TRP B   6       0.330   3.849  -2.820  1.00  0.00     0.042 A 
ATOM     72  CE3 TRP B   6       1.744   5.374  -4.048  1.00  0.00     0.014 A 
ATOM     73  NE1 TRP B   6       0.312   3.244  -1.590  1.00  0.00    -0.365 N 
ATOM     74  CZ2 TRP B   6      -0.572   3.764  -3.877  1.00  0.00     0.030 A 
ATOM     75  HE1 TRP B   6      -0.381   2.631  -1.266  1.00  0.23     0.165 HD
ATOM     76  CD1 TRP B   6       1.424   3.637  -0.885  1.00  0.00     0.096 A 
ATOM     77  CH2 TRP B   6      -0.300   4.489  -5.005  1.00  0.00     0.002 A 
ATOM     78  CZ3 TRP B   6       0.846   5.288  -5.097  1.00  0.00     0.001 A 
ENDBRANCH  68  69
ENDBRANCH  67  68
BRANCH  67  79
ATOM     79  C   TRP B   6       5.965   5.135  -1.408  1.00  0.00     0.241 C 
ATOM     80  N   VAL B   7       6.752   5.293  -2.468  1.00  6.11    -0.344 N 
ATOM     81  H   VAL B   7       6.488   4.893  -3.322  1.00  0.23     0.163 HD
ATOM     82  O   TRP B   6       6.227   5.604  -0.300  1.00  0.00    -0.271 OA
BRANCH  80  83
ATOM     83  CA  VAL B   7       7.998   6.045  -2.391  1.00  5.65     0.189 C 
BRANCH  83  84
ATOM     84  CB  VAL B   7       9.053   5.476  -3.360  1.00  1.15     0.010 C 
ATOM     85  CG1 VAL B   7       9.474   4.078  -2.930  1.00  4.96     0.012 C 
ATOM     86  CG2 VAL B   7       8.523   5.465  -4.786  1.00  9.83     0.012 C 
ENDBRANCH  83  84
BRANCH  83  87
ATOM     87  C   VAL B   7       7.772   7.520  -2.710  1.00  4.44     0.197 C 
ATOM     88  O   VAL B   7       8.412   8.369  -2.055  1.00  0.00    -0.646 OA
ATOM     89  OXT VAL B   7       6.958   7.813  -3.609  1.00  0.00    -0.646 OA
ENDBRANCH  83  87
ENDBRANCH  80  83
ENDBRANCH  67  79
ENDBRANCH  65  67
ENDBRANCH  58  63
ENDBRANCH  56  58
ENDBRANCH  48  54
ENDBRANCH   4  48
TORSDOF 31
