MODEL 1
REMARK VINA RESULT:      -9.3      0.000      0.000
REMARK  31 active torsions:
REMARK  status: ('A' for Active; 'I' for Inactive)
REMARK    1  A    between atoms: N_1  and  CA_2 
REMARK    2  A    between atoms: CA_2  and  CB_5 
REMARK    3  A    between atoms: CA_2  and  C_3 
REMARK       I    between atoms: C_3  and  N_14 
REMARK    4  A    between atoms: CB_5  and  CG_6 
REMARK    5  A    between atoms: CG_6  and  CD_7 
REMARK    6  A    between atoms: CD_7  and  CE_8 
REMARK    7  A    between atoms: CE_8  and  NZ_9 
REMARK    8  A    between atoms: N_14  and  CA_15 
REMARK    9  A    between atoms: CA_15  and  C_16 
REMARK   10  A    between atoms: CA_15  and  CB_18 
REMARK       I    between atoms: C_16  and  N_35 
REMARK   11  A    between atoms: CB_18  and  SG_19 
REMARK   12  A    between atoms: CA_22  and  CB_24 
REMARK   13  A    between atoms: CA_22  and  C_23 
REMARK   14  A    between atoms: CA_22  and  N_35 
REMARK       I    between atoms: C_23  and  N_44 
REMARK   15  A    between atoms: CB_24  and  CG_25 
REMARK   16  A    between atoms: CA_38  and  N_44 
REMARK   17  A    between atoms: CA_38  and  CB_40 
REMARK   18  A    between atoms: CA_38  and  C_39 
REMARK       I    between atoms: C_39  and  N_54 
REMARK   19  A    between atoms: CB_40  and  CG_41 
REMARK   20  A    between atoms: CG_41  and  CD_42 
REMARK   21  A    between atoms: CA_48  and  N_54 
REMARK   22  A    between atoms: CA_48  and  CB_50 
REMARK   23  A    between atoms: CA_48  and  C_49 
REMARK       I    between atoms: C_49  and  N_70 
REMARK   24  A    between atoms: CB_50  and  OG1_56 
REMARK   25  A    between atoms: CA_57  and  CB_59 
REMARK   26  A    between atoms: CA_57  and  N_70 
REMARK   27  A    between atoms: CA_57  and  C_58 
REMARK       I    between atoms: C_58  and  N_79 
REMARK   28  A    between atoms: CB_59  and  CG_60 
REMARK   29  A    between atoms: CA_73  and  N_79 
REMARK   30  A    between atoms: CA_73  and  CB_75 
REMARK   31  A    between atoms: CA_73  and  C_74 
ROOT
ATOM      1  CA  GLU B   4       9.450  93.011  63.399  1.00  0.00     0.177 C 
ENDROOT
BRANCH   1   2
ATOM      2  N   GLU B   4      10.404  93.692  62.526  1.00  0.00    -0.346 N 
ATOM      3  C   TRP B   3      10.807  94.934  62.778  1.00  0.00     0.241 C 
ATOM      4  O   TRP B   3      10.407  95.579  63.746  1.00  0.00    -0.271 OA
ATOM      5  H   GLU B   4      10.755  93.222  61.741  1.00  0.23     0.163 HD
BRANCH   3   6
ATOM      6  CA  TRP B   3      11.807  95.539  61.798  1.00  0.00     0.181 C 
BRANCH   6   7
ATOM      7  CB  TRP B   3      13.055  96.022  62.552  1.00  0.00     0.075 C 
BRANCH   7   8
ATOM      8  CG  TRP B   3      14.106  94.966  62.734  1.00  0.00    -0.028 A 
ATOM      9  CD2 TRP B   3      14.041  93.828  63.602  1.00  0.00    -0.002 A 
ATOM     10  CE2 TRP B   3      15.242  93.110  63.441  1.00  0.00     0.042 A 
ATOM     11  CE3 TRP B   3      13.084  93.345  64.500  1.00  0.00     0.014 A 
ATOM     12  NE1 TRP B   3      16.001  93.779  62.518  1.00  0.00    -0.365 N 
ATOM     13  CZ2 TRP B   3      15.511  91.939  64.146  1.00  0.00     0.030 A 
ATOM     14  HE1 TRP B   3      16.891  93.511  62.207  1.00  0.23     0.165 HD
ATOM     15  CD1 TRP B   3      15.311  94.892  62.096  1.00  0.00     0.096 A 
ATOM     16  CH2 TRP B   3      14.557  91.492  65.019  1.00  0.00     0.002 A 
ATOM     17  CZ3 TRP B   3      13.353  92.183  65.199  1.00  0.00     0.001 A 
ENDBRANCH   7   8
ENDBRANCH   6   7
BRANCH   6  18
ATOM     18  N   TRP B   3      11.203  96.626  61.034  1.00  0.00    -0.346 N 
ATOM     19  C   CYS B   2      11.785  97.128  59.935  1.00  0.00     0.241 C 
ATOM     20  O   CYS B   2      12.849  96.694  59.500  1.00  0.00    -0.271 OA
ATOM     21  H   TRP B   3      10.347  97.002  61.332  1.00  0.23     0.163 HD
BRANCH  19  22
ATOM     22  CA  CYS B   2      11.033  98.236  59.236  1.00  0.00     0.185 C 
BRANCH  22  23
ATOM     23  N   CYS B   2      11.866  98.872  58.219  1.00  0.00    -0.345 N 
ATOM     24  C   LYS B   1      11.895 100.199  58.068  1.00  0.00     0.254 C 
ATOM     25  O   LYS B   1      11.182 100.952  58.742  1.00  0.00    -0.271 OA
ATOM     26  H   CYS B   2      12.419  98.311  57.631  1.00  0.00     0.163 HD
BRANCH  24  27
ATOM     27  CA  LYS B   1      12.813 100.730  56.992  1.00  0.00     0.350 C 
BRANCH  27  28
ATOM     28  CB  LYS B   1      12.125 100.677  55.600  1.00  0.00     0.048 C 
BRANCH  28  29
ATOM     29  CG  LYS B   1      12.730  99.610  54.655  1.00  0.00     0.004 C 
BRANCH  29  30
ATOM     30  CD  LYS B   1      12.694  99.972  53.167  1.00  0.00     0.027 C 
BRANCH  30  31
ATOM     31  CE  LYS B   1      14.055  99.653  52.535  1.00  0.00     0.229 C 
BRANCH  31  32
ATOM     32  NZ  LYS B   1      15.106  99.746  53.563  1.00  0.00    -0.079 N 
ATOM     33  HZ1 LYS B   1      15.301  98.823  53.968  1.00  0.00     0.274 HD
ATOM     34  HZ2 LYS B   1      15.992 100.074  53.164  1.00  0.00     0.274 HD
ATOM     35  HZ3 LYS B   1      14.765 100.393  54.260  1.00  0.00     0.274 HD
ENDBRANCH  31  32
ENDBRANCH  30  31
ENDBRANCH  29  30
ENDBRANCH  28  29
ENDBRANCH  27  28
BRANCH  27  36
ATOM     36  N   LYS B   1      14.060  99.972  56.948  1.00  0.00     0.312 N 
ATOM     37  H   LYS B   1      14.697 100.376  56.193  1.00  0.00     0.359 HD
ENDBRANCH  27  36
ENDBRANCH  24  27
ENDBRANCH  22  23
BRANCH  22  38
ATOM     38  CB  CYS B   2       9.738  97.737  58.566  1.00  0.00     0.105 C 
BRANCH  38  39
ATOM     39  SG  CYS B   2       9.750  98.104  56.796  1.00  0.00    -0.180 SA
ATOM     40  HG  CYS B   2      10.383  99.272  56.881  1.00  0.00     0.101 HD
ENDBRANCH  38  39
ENDBRANCH  22  38
ENDBRANCH  19  22
ENDBRANCH   6  18
ENDBRANCH   3   6
ENDBRANCH   1   2
BRANCH   1  41
ATOM     41  CB  GLU B   4       9.536  93.563  64.822  1.00  0.00     0.045 C 
BRANCH  41  42
ATOM     42  CG  GLU B   4       9.031  92.593  65.878  1.00  0.00     0.116 C 
BRANCH  42  43
ATOM     43  CD  GLU B   4       9.747  91.256  65.836  1.00  0.00     0.172 C 
ATOM     44  OE2 GLU B   4       9.462  90.459  64.918  1.00  0.00    -0.648 OA
ATOM     45  OE1 GLU B   4      10.591  91.008  66.721  1.00  0.00    -0.648 OA
ENDBRANCH  42  43
ENDBRANCH  41  42
ENDBRANCH   1  41
BRANCH   1  46
ATOM     46  C   GLU B   4       8.026  93.165  62.872  1.00  0.00     0.241 C 
ATOM     47  O   GLU B   4       7.064  93.146  63.641  1.00  0.00    -0.271 OA
ATOM     48  N   THR B   5       7.901  93.313  61.556  1.00  7.70    -0.344 N 
ATOM     49  H   THR B   5       8.708  93.317  60.999  1.00  0.23     0.163 HD
BRANCH  48  50
ATOM     50  CA  THR B   5       6.597  93.466  60.917  1.00  7.88     0.205 C 
BRANCH  50  51
ATOM     51  CB  THR B   5       6.761  94.043  59.510  1.00  4.05     0.146 C 
ATOM     52  CG2 THR B   5       5.548  94.813  59.035  1.00  3.72     0.042 C 
BRANCH  51  53
ATOM     53  OG1 THR B   5       7.874  94.917  59.453  1.00  7.31    -0.393 OA
ATOM     54  HG1 THR B   5       7.613  95.787  59.761  1.00  0.23     0.210 HD
ENDBRANCH  51  53
ENDBRANCH  50  51
BRANCH  50  55
ATOM     55  C   THR B   5       5.870  92.127  60.850  1.00  7.05     0.243 C 
ATOM     56  O   THR B   5       4.786  92.027  60.277  1.00  6.06    -0.271 OA
ATOM     57  N   TRP B   6       6.475  91.099  61.435  1.00  0.00    -0.346 N 
ATOM     58  H   TRP B   6       7.340  91.240  61.875  1.00  0.23     0.163 HD
BRANCH  57  59
ATOM     59  CA  TRP B   6       5.886  89.767  61.437  1.00  0.00     0.181 C 
BRANCH  59  60
ATOM     60  CB  TRP B   6       6.959  88.715  61.153  1.00  0.00     0.075 C 
BRANCH  60  61
ATOM     61  CG  TRP B   6       6.942  88.230  59.735  1.00  0.00    -0.028 A 
ATOM     62  CD2 TRP B   6       7.032  86.870  59.294  1.00  0.00    -0.002 A 
ATOM     63  CE2 TRP B   6       6.968  86.884  57.887  1.00  0.00     0.042 A 
ATOM     64  CE3 TRP B   6       7.163  85.644  59.951  1.00  0.00     0.014 A 
ATOM     65  CZ2 TRP B   6       7.029  85.718  57.129  1.00  0.00     0.030 A 
ATOM     66  NE1 TRP B   6       6.844  88.191  57.493  1.00  0.00    -0.365 N 
ATOM     67  CH2 TRP B   6       7.157  84.531  57.797  1.00  0.00     0.002 A 
ATOM     68  CZ3 TRP B   6       7.223  84.487  59.195  1.00  0.00     0.001 A 
ATOM     69  HE1 TRP B   6       6.776  88.503  56.566  1.00  0.23     0.165 HD
ATOM     70  CD1 TRP B   6       6.829  88.993  58.609  1.00  0.00     0.096 A 
ENDBRANCH  60  61
ENDBRANCH  59  60
BRANCH  59  71
ATOM     71  C   TRP B   6       5.203  89.474  62.769  1.00  0.00     0.241 C 
ATOM     72  N   VAL B   7       5.405  90.363  63.737  1.00  6.11    -0.344 N 
ATOM     73  H   VAL B   7       5.966  91.145  63.557  1.00  0.23     0.163 HD
ATOM     74  O   TRP B   6       4.513  88.465  62.916  1.00  0.00    -0.271 OA
BRANCH  72  75
ATOM     75  CA  VAL B   7       4.813  90.203  65.059  1.00  5.65     0.189 C 
BRANCH  75  76
ATOM     76  CB  VAL B   7       5.890  90.252  66.161  1.00  1.15     0.010 C 
ATOM     77  CG1 VAL B   7       5.255  90.532  67.516  1.00  4.96     0.012 C 
ATOM     78  CG2 VAL B   7       6.684  88.955  66.195  1.00  9.83     0.012 C 
ENDBRANCH  75  76
BRANCH  75  79
ATOM     79  C   VAL B   7       3.771  91.284  65.331  1.00  4.44     0.197 C 
ATOM     80  O   VAL B   7       4.081  92.472  65.099  1.00  0.00    -0.646 OA
ATOM     81  OXT VAL B   7       2.658  90.936  65.774  1.00  0.00    -0.646 OA
ENDBRANCH  75  79
ENDBRANCH  72  75
ENDBRANCH  59  71
ENDBRANCH  57  59
ENDBRANCH  50  55
ENDBRANCH  48  50
ENDBRANCH   1  46
TORSDOF 31
ENDMDL
MODEL 2
REMARK VINA RESULT:      -9.1      1.926      2.765
REMARK  31 active torsions:
REMARK  status: ('A' for Active; 'I' for Inactive)
REMARK    1  A    between atoms: N_1  and  CA_2 
REMARK    2  A    between atoms: CA_2  and  CB_5 
REMARK    3  A    between atoms: CA_2  and  C_3 
REMARK       I    between atoms: C_3  and  N_14 
REMARK    4  A    between atoms: CB_5  and  CG_6 
REMARK    5  A    between atoms: CG_6  and  CD_7 
REMARK    6  A    between atoms: CD_7  and  CE_8 
REMARK    7  A    between atoms: CE_8  and  NZ_9 
REMARK    8  A    between atoms: N_14  and  CA_15 
REMARK    9  A    between atoms: CA_15  and  C_16 
REMARK   10  A    between atoms: CA_15  and  CB_18 
REMARK       I    between atoms: C_16  and  N_35 
REMARK   11  A    between atoms: CB_18  and  SG_19 
REMARK   12  A    between atoms: CA_22  and  CB_24 
REMARK   13  A    between atoms: CA_22  and  C_23 
REMARK   14  A    between atoms: CA_22  and  N_35 
REMARK       I    between atoms: C_23  and  N_44 
REMARK   15  A    between atoms: CB_24  and  CG_25 
REMARK   16  A    between atoms: CA_38  and  N_44 
REMARK   17  A    between atoms: CA_38  and  CB_40 
REMARK   18  A    between atoms: CA_38  and  C_39 
REMARK       I    between atoms: C_39  and  N_54 
REMARK   19  A    between atoms: CB_40  and  CG_41 
REMARK   20  A    between atoms: CG_41  and  CD_42 
REMARK   21  A    between atoms: CA_48  and  N_54 
REMARK   22  A    between atoms: CA_48  and  CB_50 
REMARK   23  A    between atoms: CA_48  and  C_49 
REMARK       I    between atoms: C_49  and  N_70 
REMARK   24  A    between atoms: CB_50  and  OG1_56 
REMARK   25  A    between atoms: CA_57  and  CB_59 
REMARK   26  A    between atoms: CA_57  and  N_70 
REMARK   27  A    between atoms: CA_57  and  C_58 
REMARK       I    between atoms: C_58  and  N_79 
REMARK   28  A    between atoms: CB_59  and  CG_60 
REMARK   29  A    between atoms: CA_73  and  N_79 
REMARK   30  A    between atoms: CA_73  and  CB_75 
REMARK   31  A    between atoms: CA_73  and  C_74 
ROOT
ATOM      1  CA  GLU B   4       9.286  93.129  62.955  1.00  0.00     0.177 C 
ENDROOT
BRANCH   1   2
ATOM      2  N   GLU B   4      10.355  93.811  62.230  1.00  0.00    -0.346 N 
ATOM      3  C   TRP B   3      10.818  94.993  62.630  1.00  0.00     0.241 C 
ATOM      4  O   TRP B   3      10.380  95.578  63.620  1.00  0.00    -0.271 OA
ATOM      5  H   GLU B   4      10.740  93.389  61.434  1.00  0.23     0.163 HD
BRANCH   3   6
ATOM      6  CA  TRP B   3      11.937  95.606  61.794  1.00  0.00     0.181 C 
BRANCH   6   7
ATOM      7  CB  TRP B   3      13.169  95.861  62.673  1.00  0.00     0.075 C 
BRANCH   7   8
ATOM      8  CG  TRP B   3      13.989  94.635  62.947  1.00  0.00    -0.028 A 
ATOM      9  CD2 TRP B   3      13.715  93.615  63.915  1.00  0.00    -0.002 A 
ATOM     10  CE2 TRP B   3      14.743  92.657  63.817  1.00  0.00     0.042 A 
ATOM     11  CE3 TRP B   3      12.702  93.418  64.858  1.00  0.00     0.014 A 
ATOM     12  NE1 TRP B   3      15.600  93.073  62.832  1.00  0.00    -0.365 N 
ATOM     13  CZ2 TRP B   3      14.786  91.523  64.624  1.00  0.00     0.030 A 
ATOM     14  HE1 TRP B   3      16.411  92.604  62.544  1.00  0.23     0.165 HD
ATOM     15  CD1 TRP B   3      15.140  94.261  62.314  1.00  0.00     0.096 A 
ATOM     16  CH2 TRP B   3      13.782  91.359  65.538  1.00  0.00     0.002 A 
ATOM     17  CZ3 TRP B   3      12.746  92.292  65.659  1.00  0.00     0.001 A 
ENDBRANCH   7   8
ENDBRANCH   6   7
BRANCH   6  18
ATOM     18  N   TRP B   3      11.493  96.836  61.142  1.00  0.00    -0.346 N 
ATOM     19  C   CYS B   2      12.085  97.301  60.034  1.00  0.00     0.241 C 
ATOM     20  O   CYS B   2      13.021  96.718  59.494  1.00  0.00    -0.271 OA
ATOM     21  H   TRP B   3      10.741  97.335  61.526  1.00  0.23     0.163 HD
BRANCH  19  22
ATOM     22  CA  CYS B   2      11.505  98.573  59.459  1.00  0.00     0.185 C 
BRANCH  22  23
ATOM     23  N   CYS B   2      12.232  98.985  58.261  1.00  0.00    -0.345 N 
ATOM     24  C   LYS B   1      12.204 100.248  57.826  1.00  0.00     0.254 C 
ATOM     25  O   LYS B   1      11.524 101.118  58.380  1.00  0.00    -0.271 OA
ATOM     26  H   CYS B   2      12.754  98.317  57.763  1.00  0.00     0.163 HD
BRANCH  24  27
ATOM     27  CA  LYS B   1      13.014 100.545  56.586  1.00  0.00     0.350 C 
BRANCH  27  28
ATOM     28  CB  LYS B   1      12.349  99.924  55.327  1.00  0.00     0.048 C 
BRANCH  28  29
ATOM     29  CG  LYS B   1      12.969 100.418  53.996  1.00  0.00     0.004 C 
BRANCH  29  30
ATOM     30  CD  LYS B   1      13.299  99.312  52.990  1.00  0.00     0.027 C 
BRANCH  30  31
ATOM     31  CE  LYS B   1      14.712  99.538  52.434  1.00  0.00     0.229 C 
BRANCH  31  32
ATOM     32  NZ  LYS B   1      15.412 100.532  53.266  1.00  0.00    -0.079 N 
ATOM     33  HZ1 LYS B   1      16.333 100.752  52.869  1.00  0.00     0.274 HD
ATOM     34  HZ2 LYS B   1      14.897 101.418  53.302  1.00  0.00     0.274 HD
ATOM     35  HZ3 LYS B   1      15.492 100.125  54.187  1.00  0.00     0.274 HD
ENDBRANCH  31  32
ENDBRANCH  30  31
ENDBRANCH  29  30
ENDBRANCH  28  29
ENDBRANCH  27  28
BRANCH  27  36
ATOM     36  N   LYS B   1      14.376 100.036  56.717  1.00  0.00     0.312 N 
ATOM     37  H   LYS B   1      14.610  99.420  55.877  1.00  0.00     0.359 HD
ENDBRANCH  27  36
ENDBRANCH  24  27
ENDBRANCH  22  23
BRANCH  22  38
ATOM     38  CB  CYS B   2      10.013  98.430  59.102  1.00  0.00     0.105 C 
BRANCH  38  39
ATOM     39  SG  CYS B   2       9.815  97.738  57.444  1.00  0.00    -0.180 SA
ATOM     40  HG  CYS B   2       9.192  98.785  56.908  1.00  0.00     0.101 HD
ENDBRANCH  38  39
ENDBRANCH  22  38
ENDBRANCH  19  22
ENDBRANCH   6  18
ENDBRANCH   3   6
ENDBRANCH   1   2
BRANCH   1  41
ATOM     41  CB  GLU B   4       8.878  93.932  64.191  1.00  0.00     0.045 C 
BRANCH  41  42
ATOM     42  CG  GLU B   4       8.755  93.087  65.448  1.00  0.00     0.116 C 
BRANCH  42  43
ATOM     43  CD  GLU B   4       7.350  92.560  65.666  1.00  0.00     0.172 C 
ATOM     44  OE2 GLU B   4       6.635  93.114  66.526  1.00  0.00    -0.648 OA
ATOM     45  OE1 GLU B   4       6.966  91.593  64.976  1.00  0.00    -0.648 OA
ENDBRANCH  42  43
ENDBRANCH  41  42
ENDBRANCH   1  41
BRANCH   1  46
ATOM     46  C   GLU B   4       8.071  92.913  62.057  1.00  0.00     0.241 C 
ATOM     47  O   GLU B   4       7.637  93.825  61.354  1.00  0.00    -0.271 OA
ATOM     48  N   THR B   5       7.526  91.700  62.091  1.00  7.70    -0.344 N 
ATOM     49  H   THR B   5       7.920  91.018  62.675  1.00  0.23     0.163 HD
BRANCH  48  50
ATOM     50  CA  THR B   5       6.358  91.356  61.285  1.00  7.88     0.205 C 
BRANCH  50  51
ATOM     51  CB  THR B   5       6.465  89.916  60.783  1.00  4.05     0.146 C 
ATOM     52  CG2 THR B   5       5.872  89.717  59.405  1.00  3.72     0.042 C 
BRANCH  51  53
ATOM     53  OG1 THR B   5       7.820  89.503  60.730  1.00  7.31    -0.393 OA
ATOM     54  HG1 THR B   5       8.377  90.260  60.537  1.00  0.23     0.210 HD
ENDBRANCH  51  53
ENDBRANCH  50  51
BRANCH  50  55
ATOM     55  C   THR B   5       5.077  91.531  62.094  1.00  7.05     0.243 C 
ATOM     56  O   THR B   5       4.431  92.577  62.033  1.00  6.06    -0.271 OA
ATOM     57  N   TRP B   6       4.713  90.501  62.849  1.00  0.00    -0.346 N 
ATOM     58  H   TRP B   6       5.267  89.693  62.856  1.00  0.23     0.163 HD
BRANCH  57  59
ATOM     59  CA  TRP B   6       3.507  90.541  63.666  1.00  0.00     0.181 C 
BRANCH  59  60
ATOM     60  CB  TRP B   6       2.777  89.199  63.597  1.00  0.00     0.075 C 
BRANCH  60  61
ATOM     61  CG  TRP B   6       2.632  88.685  62.197  1.00  0.00    -0.028 A 
ATOM     62  CD2 TRP B   6       3.463  87.712  61.552  1.00  0.00    -0.002 A 
ATOM     63  CE2 TRP B   6       2.956  87.529  60.251  1.00  0.00     0.042 A 
ATOM     64  CE3 TRP B   6       4.586  86.981  61.947  1.00  0.00     0.014 A 
ATOM     65  CZ2 TRP B   6       3.534  86.643  59.346  1.00  0.00     0.030 A 
ATOM     66  NE1 TRP B   6       1.867  88.351  60.113  1.00  0.00    -0.365 N 
ATOM     67  CH2 TRP B   6       4.633  85.940  59.758  1.00  0.00     0.002 A 
ATOM     68  CZ3 TRP B   6       5.159  86.101  61.046  1.00  0.00     0.001 A 
ATOM     69  HE1 TRP B   6       1.313  88.433  59.309  1.00  0.23     0.165 HD
ATOM     70  CD1 TRP B   6       1.680  89.041  61.286  1.00  0.00     0.096 A 
ENDBRANCH  60  61
ENDBRANCH  59  60
BRANCH  59  71
ATOM     71  C   TRP B   6       3.840  90.885  65.114  1.00  0.00     0.241 C 
ATOM     72  N   VAL B   7       4.322  89.891  65.854  1.00  6.11    -0.344 N 
ATOM     73  H   VAL B   7       4.440  89.007  65.448  1.00  0.23     0.163 HD
ATOM     74  O   TRP B   6       3.661  92.022  65.550  1.00  0.00    -0.271 OA
BRANCH  72  75
ATOM     75  CA  VAL B   7       4.678  90.082  67.254  1.00  5.65     0.189 C 
BRANCH  75  76
ATOM     76  CB  VAL B   7       3.591  89.514  68.188  1.00  1.15     0.010 C 
ATOM     77  CG1 VAL B   7       2.629  90.613  68.617  1.00  4.96     0.012 C 
ATOM     78  CG2 VAL B   7       2.843  88.375  67.513  1.00  9.83     0.012 C 
ENDBRANCH  75  76
BRANCH  75  79
ATOM     79  C   VAL B   7       6.012  89.416  67.579  1.00  4.44     0.197 C 
ATOM     80  O   VAL B   7       6.620  88.833  66.657  1.00  0.00    -0.646 OA
ATOM     81  OXT VAL B   7       6.437  89.482  68.751  1.00  0.00    -0.646 OA
ENDBRANCH  75  79
ENDBRANCH  72  75
ENDBRANCH  59  71
ENDBRANCH  57  59
ENDBRANCH  50  55
ENDBRANCH  48  50
ENDBRANCH   1  46
TORSDOF 31
ENDMDL
MODEL 3
REMARK VINA RESULT:      -8.3      2.002      2.741
REMARK  31 active torsions:
REMARK  status: ('A' for Active; 'I' for Inactive)
REMARK    1  A    between atoms: N_1  and  CA_2 
REMARK    2  A    between atoms: CA_2  and  CB_5 
REMARK    3  A    between atoms: CA_2  and  C_3 
REMARK       I    between atoms: C_3  and  N_14 
REMARK    4  A    between atoms: CB_5  and  CG_6 
REMARK    5  A    between atoms: CG_6  and  CD_7 
REMARK    6  A    between atoms: CD_7  and  CE_8 
REMARK    7  A    between atoms: CE_8  and  NZ_9 
REMARK    8  A    between atoms: N_14  and  CA_15 
REMARK    9  A    between atoms: CA_15  and  C_16 
REMARK   10  A    between atoms: CA_15  and  CB_18 
REMARK       I    between atoms: C_16  and  N_35 
REMARK   11  A    between atoms: CB_18  and  SG_19 
REMARK   12  A    between atoms: CA_22  and  CB_24 
REMARK   13  A    between atoms: CA_22  and  C_23 
REMARK   14  A    between atoms: CA_22  and  N_35 
REMARK       I    between atoms: C_23  and  N_44 
REMARK   15  A    between atoms: CB_24  and  CG_25 
REMARK   16  A    between atoms: CA_38  and  N_44 
REMARK   17  A    between atoms: CA_38  and  CB_40 
REMARK   18  A    between atoms: CA_38  and  C_39 
REMARK       I    between atoms: C_39  and  N_54 
REMARK   19  A    between atoms: CB_40  and  CG_41 
REMARK   20  A    between atoms: CG_41  and  CD_42 
REMARK   21  A    between atoms: CA_48  and  N_54 
REMARK   22  A    between atoms: CA_48  and  CB_50 
REMARK   23  A    between atoms: CA_48  and  C_49 
REMARK       I    between atoms: C_49  and  N_70 
REMARK   24  A    between atoms: CB_50  and  OG1_56 
REMARK   25  A    between atoms: CA_57  and  CB_59 
REMARK   26  A    between atoms: CA_57  and  N_70 
REMARK   27  A    between atoms: CA_57  and  C_58 
REMARK       I    between atoms: C_58  and  N_79 
REMARK   28  A    between atoms: CB_59  and  CG_60 
REMARK   29  A    between atoms: CA_73  and  N_79 
REMARK   30  A    between atoms: CA_73  and  CB_75 
REMARK   31  A    between atoms: CA_73  and  C_74 
ROOT
ATOM      1  CA  GLU B   4       9.500  93.424  62.810  1.00  0.00     0.177 C 
ENDROOT
BRANCH   1   2
ATOM      2  N   GLU B   4      10.345  94.531  62.367  1.00  0.00    -0.346 N 
ATOM      3  C   TRP B   3      11.671  94.465  62.451  1.00  0.00     0.241 C 
ATOM      4  O   TRP B   3      12.261  93.484  62.903  1.00  0.00    -0.271 OA
ATOM      5  H   GLU B   4       9.926  95.336  61.998  1.00  0.23     0.163 HD
BRANCH   3   6
ATOM      6  CA  TRP B   3      12.448  95.681  61.955  1.00  0.00     0.181 C 
BRANCH   6   7
ATOM      7  CB  TRP B   3      12.990  96.480  63.149  1.00  0.00     0.075 C 
BRANCH   7   8
ATOM      8  CG  TRP B   3      14.422  96.180  63.485  1.00  0.00    -0.028 A 
ATOM      9  CD2 TRP B   3      15.285  96.946  64.335  1.00  0.00    -0.002 A 
ATOM     10  CE2 TRP B   3      16.530  96.289  64.367  1.00  0.00     0.042 A 
ATOM     11  CE3 TRP B   3      15.127  98.124  65.072  1.00  0.00     0.014 A 
ATOM     12  NE1 TRP B   3      16.429  95.175  63.576  1.00  0.00    -0.365 N 
ATOM     13  CZ2 TRP B   3      17.609  96.771  65.105  1.00  0.00     0.030 A 
ATOM     14  HE1 TRP B   3      17.143  94.525  63.410  1.00  0.23     0.165 HD
ATOM     15  CD1 TRP B   3      15.159  95.116  63.051  1.00  0.00     0.096 A 
ATOM     16  CH2 TRP B   3      17.425  97.926  65.814  1.00  0.00     0.002 A 
ATOM     17  CZ3 TRP B   3      16.199  98.601  65.803  1.00  0.00     0.001 A 
ENDBRANCH   7   8
ENDBRANCH   6   7
BRANCH   6  18
ATOM     18  N   TRP B   3      11.616  96.521  61.097  1.00  0.00    -0.346 N 
ATOM     19  C   CYS B   2      12.136  97.226  60.081  1.00  0.00     0.241 C 
ATOM     20  O   CYS B   2      13.331  97.196  59.805  1.00  0.00    -0.271 OA
ATOM     21  H   TRP B   3      10.652  96.572  61.267  1.00  0.23     0.163 HD
BRANCH  19  22
ATOM     22  CA  CYS B   2      11.152  98.033  59.266  1.00  0.00     0.185 C 
BRANCH  22  23
ATOM     23  N   CYS B   2      11.833  98.777  58.211  1.00  0.00    -0.345 N 
ATOM     24  C   LYS B   1      11.736 100.106  58.117  1.00  0.00     0.254 C 
ATOM     25  O   LYS B   1      11.025 100.767  58.882  1.00  0.00    -0.271 OA
ATOM     26  H   CYS B   2      12.377  98.288  57.553  1.00  0.00     0.163 HD
BRANCH  24  27
ATOM     27  CA  LYS B   1      12.505 100.755  56.990  1.00  0.00     0.350 C 
BRANCH  27  28
ATOM     28  CB  LYS B   1      11.729 100.640  55.650  1.00  0.00     0.048 C 
BRANCH  28  29
ATOM     29  CG  LYS B   1      12.242  99.498  54.737  1.00  0.00     0.004 C 
BRANCH  29  30
ATOM     30  CD  LYS B   1      12.712  99.944  53.350  1.00  0.00     0.027 C 
BRANCH  30  31
ATOM     31  CE  LYS B   1      14.125  99.403  53.096  1.00  0.00     0.229 C 
BRANCH  31  32
ATOM     32  NZ  LYS B   1      14.602  99.875  51.784  1.00  0.00    -0.079 N 
ATOM     33  HZ1 LYS B   1      15.605  99.685  51.673  1.00  0.00     0.274 HD
ATOM     34  HZ2 LYS B   1      14.132  99.384  51.017  1.00  0.00     0.274 HD
ATOM     35  HZ3 LYS B   1      14.406 100.865  51.750  1.00  0.00     0.274 HD
ENDBRANCH  31  32
ENDBRANCH  30  31
ENDBRANCH  29  30
ENDBRANCH  28  29
ENDBRANCH  27  28
BRANCH  27  36
ATOM     36  N   LYS B   1      13.825 100.148  56.842  1.00  0.00     0.312 N 
ATOM     37  H   LYS B   1      14.512 100.875  56.468  1.00  0.00     0.359 HD
ENDBRANCH  27  36
ENDBRANCH  24  27
ENDBRANCH  22  23
BRANCH  22  38
ATOM     38  CB  CYS B   2      10.062  97.155  58.621  1.00  0.00     0.105 C 
BRANCH  38  39
ATOM     39  SG  CYS B   2       9.564  97.827  57.019  1.00  0.00    -0.180 SA
ATOM     40  HG  CYS B   2      10.039  96.832  56.274  1.00  0.00     0.101 HD
ENDBRANCH  38  39
ENDBRANCH  22  38
ENDBRANCH  19  22
ENDBRANCH   6  18
ENDBRANCH   3   6
ENDBRANCH   1   2
BRANCH   1  41
ATOM     41  CB  GLU B   4       9.185  93.553  64.301  1.00  0.00     0.045 C 
BRANCH  41  42
ATOM     42  CG  GLU B   4       9.838  92.476  65.151  1.00  0.00     0.116 C 
BRANCH  42  43
ATOM     43  CD  GLU B   4       9.808  91.110  64.492  1.00  0.00     0.172 C 
ATOM     44  OE2 GLU B   4       8.699  90.580  64.276  1.00  0.00    -0.648 OA
ATOM     45  OE1 GLU B   4      10.894  90.572  64.193  1.00  0.00    -0.648 OA
ENDBRANCH  42  43
ENDBRANCH  41  42
ENDBRANCH   1  41
BRANCH   1  46
ATOM     46  C   GLU B   4       8.200  93.380  62.012  1.00  0.00     0.241 C 
ATOM     47  O   GLU B   4       8.068  94.048  60.986  1.00  0.00    -0.271 OA
ATOM     48  N   THR B   5       7.244  92.591  62.493  1.00  7.70    -0.344 N 
ATOM     49  H   THR B   5       7.413  92.087  63.316  1.00  0.23     0.163 HD
BRANCH  48  50
ATOM     50  CA  THR B   5       5.949  92.456  61.832  1.00  7.88     0.205 C 
BRANCH  50  51
ATOM     51  CB  THR B   5       6.140  92.227  60.332  1.00  4.05     0.146 C 
ATOM     52  CG2 THR B   5       6.311  90.768  59.967  1.00  3.72     0.042 C 
BRANCH  51  53
ATOM     53  OG1 THR B   5       5.031  92.724  59.604  1.00  7.31    -0.393 OA
ATOM     54  HG1 THR B   5       5.338  93.331  58.928  1.00  0.23     0.210 HD
ENDBRANCH  51  53
ENDBRANCH  50  51
BRANCH  50  55
ATOM     55  C   THR B   5       5.154  91.304  62.437  1.00  7.05     0.243 C 
ATOM     56  O   THR B   5       3.940  91.213  62.257  1.00  6.06    -0.271 OA
ATOM     57  N   TRP B   6       5.846  90.425  63.154  1.00  0.00    -0.346 N 
ATOM     58  H   TRP B   6       6.812  90.549  63.261  1.00  0.23     0.163 HD
BRANCH  57  59
ATOM     59  CA  TRP B   6       5.203  89.277  63.781  1.00  0.00     0.181 C 
BRANCH  59  60
ATOM     60  CB  TRP B   6       5.761  87.977  63.199  1.00  0.00     0.075 C 
BRANCH  60  61
ATOM     61  CG  TRP B   6       5.058  87.549  61.947  1.00  0.00    -0.028 A 
ATOM     62  CD2 TRP B   6       5.653  86.925  60.802  1.00  0.00    -0.002 A 
ATOM     63  CE2 TRP B   6       4.622  86.695  59.871  1.00  0.00     0.042 A 
ATOM     64  CE3 TRP B   6       6.955  86.541  60.474  1.00  0.00     0.014 A 
ATOM     65  CZ2 TRP B   6       4.856  86.097  58.636  1.00  0.00     0.030 A 
ATOM     66  NE1 TRP B   6       3.456  87.157  60.425  1.00  0.00    -0.365 N 
ATOM     67  CH2 TRP B   6       6.140  85.730  58.340  1.00  0.00     0.002 A 
ATOM     68  CZ3 TRP B   6       7.185  85.947  59.246  1.00  0.00     0.001 A 
ATOM     69  HE1 TRP B   6       2.572  87.127  60.001  1.00  0.23     0.165 HD
ATOM     70  CD1 TRP B   6       3.727  87.668  61.671  1.00  0.00     0.096 A 
ENDBRANCH  60  61
ENDBRANCH  59  60
BRANCH  59  71
ATOM     71  C   TRP B   6       5.398  89.302  65.293  1.00  0.00     0.241 C 
ATOM     72  N   VAL B   7       6.657  89.266  65.721  1.00  6.11    -0.344 N 
ATOM     73  H   VAL B   7       7.383  89.228  65.065  1.00  0.23     0.163 HD
ATOM     74  O   TRP B   6       4.431  89.349  66.054  1.00  0.00    -0.271 OA
BRANCH  72  75
ATOM     75  CA  VAL B   7       6.983  89.282  67.141  1.00  5.65     0.189 C 
BRANCH  75  76
ATOM     76  CB  VAL B   7       8.103  88.274  67.466  1.00  1.15     0.010 C 
ATOM     77  CG1 VAL B   7       7.722  87.422  68.668  1.00  4.96     0.012 C 
ATOM     78  CG2 VAL B   7       8.407  87.399  66.259  1.00  9.83     0.012 C 
ENDBRANCH  75  76
BRANCH  75  79
ATOM     79  C   VAL B   7       7.418  90.673  67.592  1.00  4.44     0.197 C 
ATOM     80  O   VAL B   7       8.601  90.829  67.962  1.00  0.00    -0.646 OA
ATOM     81  OXT VAL B   7       6.575  91.592  67.571  1.00  0.00    -0.646 OA
ENDBRANCH  75  79
ENDBRANCH  72  75
ENDBRANCH  59  71
ENDBRANCH  57  59
ENDBRANCH  50  55
ENDBRANCH  48  50
ENDBRANCH   1  46
TORSDOF 31
ENDMDL
MODEL 4
REMARK VINA RESULT:      -7.4      2.187      3.314
REMARK  31 active torsions:
REMARK  status: ('A' for Active; 'I' for Inactive)
REMARK    1  A    between atoms: N_1  and  CA_2 
REMARK    2  A    between atoms: CA_2  and  CB_5 
REMARK    3  A    between atoms: CA_2  and  C_3 
REMARK       I    between atoms: C_3  and  N_14 
REMARK    4  A    between atoms: CB_5  and  CG_6 
REMARK    5  A    between atoms: CG_6  and  CD_7 
REMARK    6  A    between atoms: CD_7  and  CE_8 
REMARK    7  A    between atoms: CE_8  and  NZ_9 
REMARK    8  A    between atoms: N_14  and  CA_15 
REMARK    9  A    between atoms: CA_15  and  C_16 
REMARK   10  A    between atoms: CA_15  and  CB_18 
REMARK       I    between atoms: C_16  and  N_35 
REMARK   11  A    between atoms: CB_18  and  SG_19 
REMARK   12  A    between atoms: CA_22  and  CB_24 
REMARK   13  A    between atoms: CA_22  and  C_23 
REMARK   14  A    between atoms: CA_22  and  N_35 
REMARK       I    between atoms: C_23  and  N_44 
REMARK   15  A    between atoms: CB_24  and  CG_25 
REMARK   16  A    between atoms: CA_38  and  N_44 
REMARK   17  A    between atoms: CA_38  and  CB_40 
REMARK   18  A    between atoms: CA_38  and  C_39 
REMARK       I    between atoms: C_39  and  N_54 
REMARK   19  A    between atoms: CB_40  and  CG_41 
REMARK   20  A    between atoms: CG_41  and  CD_42 
REMARK   21  A    between atoms: CA_48  and  N_54 
REMARK   22  A    between atoms: CA_48  and  CB_50 
REMARK   23  A    between atoms: CA_48  and  C_49 
REMARK       I    between atoms: C_49  and  N_70 
REMARK   24  A    between atoms: CB_50  and  OG1_56 
REMARK   25  A    between atoms: CA_57  and  CB_59 
REMARK   26  A    between atoms: CA_57  and  N_70 
REMARK   27  A    between atoms: CA_57  and  C_58 
REMARK       I    between atoms: C_58  and  N_79 
REMARK   28  A    between atoms: CB_59  and  CG_60 
REMARK   29  A    between atoms: CA_73  and  N_79 
REMARK   30  A    between atoms: CA_73  and  CB_75 
REMARK   31  A    between atoms: CA_73  and  C_74 
ROOT
ATOM      1  CA  GLU B   4       9.759  93.143  63.363  1.00  0.00     0.177 C 
ENDROOT
BRANCH   1   2
ATOM      2  N   GLU B   4      10.499  94.304  62.871  1.00  0.00    -0.346 N 
ATOM      3  C   TRP B   3      11.785  94.217  62.545  1.00  0.00     0.241 C 
ATOM      4  O   TRP B   3      12.425  93.170  62.637  1.00  0.00    -0.271 OA
ATOM      5  H   GLU B   4      10.036  95.163  62.779  1.00  0.23     0.163 HD
BRANCH   3   6
ATOM      6  CA  TRP B   3      12.450  95.495  62.042  1.00  0.00     0.181 C 
BRANCH   6   7
ATOM      7  CB  TRP B   3      12.977  96.314  63.228  1.00  0.00     0.075 C 
BRANCH   7   8
ATOM      8  CG  TRP B   3      14.424  96.072  63.544  1.00  0.00    -0.028 A 
ATOM      9  CD2 TRP B   3      15.277  96.889  64.355  1.00  0.00    -0.002 A 
ATOM     10  CE2 TRP B   3      16.544  96.275  64.381  1.00  0.00     0.042 A 
ATOM     11  CE3 TRP B   3      15.093  98.081  65.063  1.00  0.00     0.014 A 
ATOM     12  NE1 TRP B   3      16.465  95.137  63.623  1.00  0.00    -0.365 N 
ATOM     13  CZ2 TRP B   3      17.620  96.813  65.083  1.00  0.00     0.030 A 
ATOM     14  HE1 TRP B   3      17.198  94.507  63.459  1.00  0.23     0.165 HD
ATOM     15  CD1 TRP B   3      15.188  95.021  63.125  1.00  0.00     0.096 A 
ATOM     16  CH2 TRP B   3      17.410  97.981  65.764  1.00  0.00     0.002 A 
ATOM     17  CZ3 TRP B   3      16.162  98.614  65.759  1.00  0.00     0.001 A 
ENDBRANCH   7   8
ENDBRANCH   6   7
BRANCH   6  18
ATOM     18  N   TRP B   3      11.526  96.283  61.230  1.00  0.00    -0.346 N 
ATOM     19  C   CYS B   2      11.961  97.130  60.287  1.00  0.00     0.241 C 
ATOM     20  O   CYS B   2      13.154  97.283  60.040  1.00  0.00    -0.271 OA
ATOM     21  H   TRP B   3      10.561  96.190  61.378  1.00  0.23     0.163 HD
BRANCH  19  22
ATOM     22  CA  CYS B   2      10.890  97.862  59.511  1.00  0.00     0.185 C 
BRANCH  22  23
ATOM     23  N   CYS B   2      11.479  98.700  58.471  1.00  0.00    -0.345 N 
ATOM     24  C   LYS B   1      11.367 100.032  58.500  1.00  0.00     0.254 C 
ATOM     25  O   LYS B   1      10.719 100.617  59.374  1.00  0.00    -0.271 OA
ATOM     26  H   CYS B   2      11.968  98.276  57.731  1.00  0.00     0.163 HD
BRANCH  24  27
ATOM     27  CA  LYS B   1      12.038 100.783  57.373  1.00  0.00     0.350 C 
BRANCH  27  28
ATOM     28  CB  LYS B   1      11.302 100.539  56.028  1.00  0.00     0.048 C 
BRANCH  28  29
ATOM     29  CG  LYS B   1      11.974  99.459  55.145  1.00  0.00     0.004 C 
BRANCH  29  30
ATOM     30  CD  LYS B   1      12.386  99.933  53.748  1.00  0.00     0.027 C 
BRANCH  30  31
ATOM     31  CE  LYS B   1      13.793  99.408  53.430  1.00  0.00     0.229 C 
BRANCH  31  32
ATOM     32  NZ  LYS B   1      14.244  99.966  52.143  1.00  0.00    -0.079 N 
ATOM     33  HZ1 LYS B   1      13.462 100.029  51.481  1.00  0.00     0.274 HD
ATOM     34  HZ2 LYS B   1      14.601 100.920  52.255  1.00  0.00     0.274 HD
ATOM     35  HZ3 LYS B   1      14.968  99.348  51.804  1.00  0.00     0.274 HD
ENDBRANCH  31  32
ENDBRANCH  30  31
ENDBRANCH  29  30
ENDBRANCH  28  29
ENDBRANCH  27  28
BRANCH  27  36
ATOM     36  N   LYS B   1      13.437 100.386  57.241  1.00  0.00     0.312 N 
ATOM     37  H   LYS B   1      13.497  99.457  56.719  1.00  0.00     0.359 HD
ENDBRANCH  27  36
ENDBRANCH  24  27
ENDBRANCH  22  23
BRANCH  22  38
ATOM     38  CB  CYS B   2       9.880  96.901  58.853  1.00  0.00     0.105 C 
BRANCH  38  39
ATOM     39  SG  CYS B   2       9.422  97.485  57.205  1.00  0.00    -0.180 SA
ATOM     40  HG  CYS B   2       8.207  97.925  57.523  1.00  0.00     0.101 HD
ENDBRANCH  38  39
ENDBRANCH  22  38
ENDBRANCH  19  22
ENDBRANCH   6  18
ENDBRANCH   3   6
ENDBRANCH   1   2
BRANCH   1  41
ATOM     41  CB  GLU B   4       9.694  93.156  64.891  1.00  0.00     0.045 C 
BRANCH  41  42
ATOM     42  CG  GLU B   4      10.065  91.825  65.523  1.00  0.00     0.116 C 
BRANCH  42  43
ATOM     43  CD  GLU B   4      11.540  91.501  65.383  1.00  0.00     0.172 C 
ATOM     44  OE2 GLU B   4      11.864  90.472  64.754  1.00  0.00    -0.648 OA
ATOM     45  OE1 GLU B   4      12.370  92.275  65.903  1.00  0.00    -0.648 OA
ENDBRANCH  42  43
ENDBRANCH  41  42
ENDBRANCH   1  41
BRANCH   1  46
ATOM     46  C   GLU B   4       8.346  93.116  62.787  1.00  0.00     0.241 C 
ATOM     47  O   GLU B   4       8.095  93.653  61.708  1.00  0.00    -0.271 OA
ATOM     48  N   THR B   5       7.428  92.489  63.517  1.00  7.70    -0.344 N 
ATOM     49  H   THR B   5       7.694  92.083  64.369  1.00  0.23     0.163 HD
BRANCH  48  50
ATOM     50  CA  THR B   5       6.036  92.390  63.089  1.00  7.88     0.205 C 
BRANCH  50  51
ATOM     51  CB  THR B   5       5.568  93.720  62.496  1.00  4.05     0.146 C 
ATOM     52  CG2 THR B   5       4.546  93.555  61.392  1.00  3.72     0.042 C 
BRANCH  51  53
ATOM     53  OG1 THR B   5       4.989  94.538  63.497  1.00  7.31    -0.393 OA
ATOM     54  HG1 THR B   5       5.679  94.874  64.073  1.00  0.23     0.210 HD
ENDBRANCH  51  53
ENDBRANCH  50  51
BRANCH  50  55
ATOM     55  C   THR B   5       5.869  91.274  62.062  1.00  7.05     0.243 C 
ATOM     56  O   THR B   5       5.539  90.141  62.412  1.00  6.06    -0.271 OA
ATOM     57  N   TRP B   6       6.094  91.603  60.795  1.00  0.00    -0.346 N 
ATOM     58  H   TRP B   6       6.352  92.523  60.577  1.00  0.23     0.163 HD
BRANCH  57  59
ATOM     59  CA  TRP B   6       5.963  90.628  59.719  1.00  0.00     0.181 C 
BRANCH  59  60
ATOM     60  CB  TRP B   6       6.899  89.444  59.962  1.00  0.00     0.075 C 
BRANCH  60  61
ATOM     61  CG  TRP B   6       6.957  88.497  58.803  1.00  0.00    -0.028 A 
ATOM     62  CD2 TRP B   6       7.011  87.067  58.867  1.00  0.00    -0.002 A 
ATOM     63  CE2 TRP B   6       7.046  86.592  57.543  1.00  0.00     0.042 A 
ATOM     64  CE3 TRP B   6       7.035  86.144  59.916  1.00  0.00     0.014 A 
ATOM     65  CZ2 TRP B   6       7.102  85.234  57.241  1.00  0.00     0.030 A 
ATOM     66  NE1 TRP B   6       7.015  87.682  56.712  1.00  0.00    -0.365 N 
ATOM     67  CH2 TRP B   6       7.125  84.351  58.287  1.00  0.00     0.002 A 
ATOM     68  CZ3 TRP B   6       7.091  84.795  59.614  1.00  0.00     0.001 A 
ATOM     69  HE1 TRP B   6       7.028  87.653  55.732  1.00  0.23     0.165 HD
ATOM     70  CD1 TRP B   6       6.961  88.822  57.477  1.00  0.00     0.096 A 
ENDBRANCH  60  61
ENDBRANCH  59  60
BRANCH  59  71
ATOM     71  C   TRP B   6       4.522  90.143  59.595  1.00  0.00     0.241 C 
ATOM     72  N   VAL B   7       4.238  88.995  60.204  1.00  6.11    -0.344 N 
ATOM     73  H   VAL B   7       4.946  88.527  60.693  1.00  0.23     0.163 HD
ATOM     74  O   TRP B   6       3.690  90.791  58.960  1.00  0.00    -0.271 OA
BRANCH  72  75
ATOM     75  CA  VAL B   7       2.901  88.417  60.162  1.00  5.65     0.189 C 
BRANCH  75  76
ATOM     76  CB  VAL B   7       2.770  87.399  59.013  1.00  1.15     0.010 C 
ATOM     77  CG1 VAL B   7       3.362  86.057  59.418  1.00  4.96     0.012 C 
ATOM     78  CG2 VAL B   7       1.315  87.243  58.596  1.00  9.83     0.012 C 
ENDBRANCH  75  76
BRANCH  75  79
ATOM     79  C   VAL B   7       2.557  87.729  61.480  1.00  4.44     0.197 C 
ATOM     80  O   VAL B   7       1.378  87.359  61.661  1.00  0.00    -0.646 OA
ATOM     81  OXT VAL B   7       3.467  87.566  62.318  1.00  0.00    -0.646 OA
ENDBRANCH  75  79
ENDBRANCH  72  75
ENDBRANCH  59  71
ENDBRANCH  57  59
ENDBRANCH  50  55
ENDBRANCH  48  50
ENDBRANCH   1  46
TORSDOF 31
ENDMDL
