MODEL 1
REMARK VINA RESULT:      -7.4      0.000      0.000
REMARK  31 active torsions:
REMARK  status: ('A' for Active; 'I' for Inactive)
REMARK    1  A    between atoms: N_1  and  CA_2 
REMARK    2  A    between atoms: CA_2  and  CB_5 
REMARK    3  A    between atoms: CA_2  and  C_3 
REMARK       I    between atoms: C_3  and  N_14 
REMARK    4  A    between atoms: CB_5  and  CG_6 
REMARK    5  A    between atoms: CG_6  and  CD_7 
REMARK    6  A    between atoms: CD_7  and  CE_8 
REMARK    7  A    between atoms: CE_8  and  NZ_9 
REMARK    8  A    between atoms: N_14  and  CA_15 
REMARK    9  A    between atoms: CA_15  and  C_16 
REMARK   10  A    between atoms: CA_15  and  CB_18 
REMARK       I    between atoms: C_16  and  N_36 
REMARK   11  A    between atoms: CB_18  and  CG_19 
REMARK   12  A    between atoms: CA_23  and  CB_25 
REMARK   13  A    between atoms: CA_23  and  C_24 
REMARK   14  A    between atoms: CA_23  and  N_36 
REMARK       I    between atoms: C_24  and  N_45 
REMARK   15  A    between atoms: CB_25  and  CG_26 
REMARK   16  A    between atoms: CA_39  and  N_45 
REMARK   17  A    between atoms: CA_39  and  CB_41 
REMARK   18  A    between atoms: CA_39  and  C_40 
REMARK       I    between atoms: C_40  and  N_55 
REMARK   19  A    between atoms: CB_41  and  CG_42 
REMARK   20  A    between atoms: CG_42  and  CD_43 
REMARK   21  A    between atoms: CA_49  and  N_55 
REMARK   22  A    between atoms: CA_49  and  CB_51 
REMARK   23  A    between atoms: CA_49  and  C_50 
REMARK       I    between atoms: C_50  and  N_71 
REMARK   24  A    between atoms: CB_51  and  OG1_57 
REMARK   25  A    between atoms: CA_58  and  CB_60 
REMARK   26  A    between atoms: CA_58  and  N_71 
REMARK   27  A    between atoms: CA_58  and  C_59 
REMARK       I    between atoms: C_59  and  N_80 
REMARK   28  A    between atoms: CB_60  and  CG_61 
REMARK   29  A    between atoms: CA_74  and  N_80 
REMARK   30  A    between atoms: CA_74  and  CB_76 
REMARK   31  A    between atoms: CA_74  and  C_75 
ROOT
ATOM      1  CA  GLU B   4       4.880  90.147  62.079  1.00  0.00     0.177 C 
ENDROOT
BRANCH   1   2
ATOM      2  N   GLU B   4       3.485  89.857  62.403  1.00  0.00    -0.346 N 
ATOM      3  C   TRP B   3       3.119  89.504  63.633  1.00  0.00     0.241 C 
ATOM      4  O   TRP B   3       3.920  89.398  64.560  1.00  0.00    -0.271 OA
ATOM      5  H   GLU B   4       2.805  89.927  61.701  1.00  0.23     0.163 HD
BRANCH   3   6
ATOM      6  CA  TRP B   3       1.634  89.229  63.850  1.00  0.00     0.181 C 
BRANCH   6   7
ATOM      7  CB  TRP B   3       1.378  88.865  65.320  1.00  0.00     0.075 C 
BRANCH   7   8
ATOM      8  CG  TRP B   3       0.951  90.026  66.171  1.00  0.00    -0.028 A 
ATOM      9  CD2 TRP B   3       1.396  90.328  67.499  1.00  0.00    -0.002 A 
ATOM     10  CE2 TRP B   3       0.741  91.508  67.901  1.00  0.00     0.042 A 
ATOM     11  CE3 TRP B   3       2.284  89.717  68.389  1.00  0.00     0.014 A 
ATOM     12  NE1 TRP B   3      -0.062  91.906  66.865  1.00  0.00    -0.365 N 
ATOM     13  CZ2 TRP B   3       0.945  92.086  69.152  1.00  0.00     0.030 A 
ATOM     14  HE1 TRP B   3      -0.640  92.699  66.861  1.00  0.23     0.165 HD
ATOM     15  CD1 TRP B   3       0.071  91.011  65.829  1.00  0.00     0.096 A 
ATOM     16  CH2 TRP B   3       1.818  91.464  70.002  1.00  0.00     0.002 A 
ATOM     17  CZ3 TRP B   3       2.485  90.291  69.630  1.00  0.00     0.001 A 
ENDBRANCH   7   8
ENDBRANCH   6   7
BRANCH   6  18
ATOM     18  N   TRP B   3       1.159  88.174  62.959  1.00  0.00    -0.346 N 
ATOM     19  C   ASP B   2       1.495  86.889  63.141  1.00  0.00     0.241 C 
ATOM     20  O   ASP B   2       2.209  86.523  64.072  1.00  0.00    -0.271 OA
ATOM     21  H   TRP B   3       0.577  88.411  62.206  1.00  0.23     0.163 HD
BRANCH  19  22
ATOM     22  CA  ASP B   2       0.913  85.906  62.154  1.00  0.00     0.186 C 
BRANCH  22  23
ATOM     23  N   ASP B   2       1.917  85.481  61.183  1.00  0.00    -0.345 N 
ATOM     24  C   LYS B   1       1.950  85.985  59.946  1.00  0.00     0.254 C 
ATOM     25  O   LYS B   1       1.107  86.794  59.544  1.00  0.00    -0.271 OA
ATOM     26  H   ASP B   2       2.584  84.808  61.446  1.00  0.00     0.163 HD
BRANCH  24  27
ATOM     27  CA  LYS B   1       3.051  85.474  59.046  1.00  0.00     0.350 C 
BRANCH  27  28
ATOM     28  CB  LYS B   1       4.449  85.836  59.619  1.00  0.00     0.048 C 
BRANCH  28  29
ATOM     29  CG  LYS B   1       5.562  85.885  58.542  1.00  0.00     0.004 C 
BRANCH  29  30
ATOM     30  CD  LYS B   1       6.962  86.195  59.077  1.00  0.00     0.027 C 
BRANCH  30  31
ATOM     31  CE  LYS B   1       7.364  87.614  58.652  1.00  0.00     0.229 C 
BRANCH  31  32
ATOM     32  NZ  LYS B   1       6.743  87.931  57.354  1.00  0.00    -0.079 N 
ATOM     33  HZ1 LYS B   1       5.755  88.183  57.477  1.00  0.00     0.274 HD
ATOM     34  HZ2 LYS B   1       7.191  88.740  56.913  1.00  0.00     0.274 HD
ATOM     35  HZ3 LYS B   1       6.847  87.106  56.780  1.00  0.00     0.274 HD
ENDBRANCH  31  32
ENDBRANCH  30  31
ENDBRANCH  29  30
ENDBRANCH  28  29
ENDBRANCH  27  28
BRANCH  27  36
ATOM     36  N   LYS B   1       2.921  86.021  57.699  1.00  0.00     0.312 N 
ATOM     37  H   LYS B   1       2.764  85.226  57.004  1.00  0.00     0.359 HD
ENDBRANCH  27  36
ENDBRANCH  24  27
ENDBRANCH  22  23
BRANCH  22  38
ATOM     38  CB  ASP B   2       0.306  84.677  62.887  1.00  0.00     0.147 C 
BRANCH  38  39
ATOM     39  CG  ASP B   2       0.920  83.318  62.519  1.00  0.00     0.175 C 
ATOM     40  OD2 ASP B   2       0.443  82.689  61.552  1.00  0.00    -0.648 OA
ATOM     41  OD1 ASP B   2       1.903  82.900  63.166  1.00  0.00    -0.648 OA
ENDBRANCH  38  39
ENDBRANCH  22  38
ENDBRANCH  19  22
ENDBRANCH   6  18
ENDBRANCH   3   6
ENDBRANCH   1   2
BRANCH   1  42
ATOM     42  CB  GLU B   4       5.115  90.034  60.572  1.00  0.00     0.045 C 
BRANCH  42  43
ATOM     43  CG  GLU B   4       4.083  89.173  59.862  1.00  0.00     0.116 C 
BRANCH  43  44
ATOM     44  CD  GLU B   4       3.615  89.778  58.553  1.00  0.00     0.172 C 
ATOM     45  OE2 GLU B   4       2.392  89.974  58.393  1.00  0.00    -0.648 OA
ATOM     46  OE1 GLU B   4       4.472  90.056  57.688  1.00  0.00    -0.648 OA
ENDBRANCH  43  44
ENDBRANCH  42  43
ENDBRANCH   1  42
BRANCH   1  47
ATOM     47  C   GLU B   4       5.270  91.542  62.558  1.00  0.00     0.241 C 
ATOM     48  O   GLU B   4       4.998  92.538  61.886  1.00  0.00    -0.271 OA
ATOM     49  N   THR B   5       5.913  91.604  63.720  1.00  7.70    -0.344 N 
ATOM     50  H   THR B   5       6.101  90.773  64.204  1.00  0.23     0.163 HD
BRANCH  49  51
ATOM     51  CA  THR B   5       6.349  92.874  64.295  1.00  7.88     0.205 C 
BRANCH  51  52
ATOM     52  CB  THR B   5       5.576  93.167  65.582  1.00  4.05     0.146 C 
ATOM     53  CG2 THR B   5       4.096  92.871  65.471  1.00  3.72     0.042 C 
BRANCH  52  54
ATOM     54  OG1 THR B   5       6.087  92.400  66.658  1.00  7.31    -0.393 OA
ATOM     55  HG1 THR B   5       6.328  91.527  66.343  1.00  0.23     0.210 HD
ENDBRANCH  52  54
ENDBRANCH  51  52
BRANCH  51  56
ATOM     56  C   THR B   5       7.846  92.848  64.582  1.00  7.05     0.243 C 
ATOM     57  O   THR B   5       8.312  93.445  65.552  1.00  6.06    -0.271 OA
ATOM     58  N   TRP B   6       8.596  92.150  63.735  1.00  0.00    -0.346 N 
ATOM     59  H   TRP B   6       8.167  91.694  62.980  1.00  0.23     0.163 HD
BRANCH  58  60
ATOM     60  CA  TRP B   6      10.039  92.045  63.902  1.00  0.00     0.181 C 
BRANCH  60  61
ATOM     61  CB  TRP B   6      10.589  93.310  64.562  1.00  0.00     0.075 C 
BRANCH  61  62
ATOM     62  CG  TRP B   6      11.522  94.074  63.674  1.00  0.00    -0.028 A 
ATOM     63  CD2 TRP B   6      12.923  93.831  63.492  1.00  0.00    -0.002 A 
ATOM     64  CE2 TRP B   6      13.393  94.782  62.566  1.00  0.00     0.042 A 
ATOM     65  CE3 TRP B   6      13.823  92.904  64.023  1.00  0.00     0.014 A 
ATOM     66  CZ2 TRP B   6      14.724  94.829  62.161  1.00  0.00     0.030 A 
ATOM     67  NE1 TRP B   6      12.329  95.566  62.202  1.00  0.00    -0.365 N 
ATOM     68  CH2 TRP B   6      15.585  93.910  62.696  1.00  0.00     0.002 A 
ATOM     69  CZ3 TRP B   6      15.145  92.953  63.618  1.00  0.00     0.001 A 
ATOM     70  HE1 TRP B   6      12.360  96.312  61.568  1.00  0.23     0.165 HD
ATOM     71  CD1 TRP B   6      11.209  95.134  62.872  1.00  0.00     0.096 A 
ENDBRANCH  61  62
ENDBRANCH  60  61
BRANCH  60  72
ATOM     72  C   TRP B   6      10.404  90.818  64.731  1.00  0.00     0.241 C 
ATOM     73  N   VAL B   7       9.450  90.347  65.529  1.00  6.11    -0.344 N 
ATOM     74  H   VAL B   7       8.579  90.795  65.547  1.00  0.23     0.163 HD
ATOM     75  O   TRP B   6      11.524  90.313  64.652  1.00  0.00    -0.271 OA
BRANCH  73  76
ATOM     76  CA  VAL B   7       9.667  89.182  66.377  1.00  5.65     0.189 C 
BRANCH  76  77
ATOM     77  CB  VAL B   7       9.998  89.601  67.824  1.00  1.15     0.010 C 
ATOM     78  CG1 VAL B   7       8.934  90.546  68.363  1.00  4.96     0.012 C 
ATOM     79  CG2 VAL B   7      10.136  88.378  68.719  1.00  9.83     0.012 C 
ENDBRANCH  76  77
BRANCH  76  80
ATOM     80  C   VAL B   7       8.442  88.273  66.389  1.00  4.44     0.197 C 
ATOM     81  O   VAL B   7       8.615  87.054  66.595  1.00  0.00    -0.646 OA
ATOM     82  OXT VAL B   7       7.322  88.787  66.192  1.00  0.00    -0.646 OA
ENDBRANCH  76  80
ENDBRANCH  73  76
ENDBRANCH  60  72
ENDBRANCH  58  60
ENDBRANCH  51  56
ENDBRANCH  49  51
ENDBRANCH   1  47
TORSDOF 31
ENDMDL
MODEL 2
REMARK VINA RESULT:      -6.6      1.998      2.985
REMARK  31 active torsions:
REMARK  status: ('A' for Active; 'I' for Inactive)
REMARK    1  A    between atoms: N_1  and  CA_2 
REMARK    2  A    between atoms: CA_2  and  CB_5 
REMARK    3  A    between atoms: CA_2  and  C_3 
REMARK       I    between atoms: C_3  and  N_14 
REMARK    4  A    between atoms: CB_5  and  CG_6 
REMARK    5  A    between atoms: CG_6  and  CD_7 
REMARK    6  A    between atoms: CD_7  and  CE_8 
REMARK    7  A    between atoms: CE_8  and  NZ_9 
REMARK    8  A    between atoms: N_14  and  CA_15 
REMARK    9  A    between atoms: CA_15  and  C_16 
REMARK   10  A    between atoms: CA_15  and  CB_18 
REMARK       I    between atoms: C_16  and  N_36 
REMARK   11  A    between atoms: CB_18  and  CG_19 
REMARK   12  A    between atoms: CA_23  and  CB_25 
REMARK   13  A    between atoms: CA_23  and  C_24 
REMARK   14  A    between atoms: CA_23  and  N_36 
REMARK       I    between atoms: C_24  and  N_45 
REMARK   15  A    between atoms: CB_25  and  CG_26 
REMARK   16  A    between atoms: CA_39  and  N_45 
REMARK   17  A    between atoms: CA_39  and  CB_41 
REMARK   18  A    between atoms: CA_39  and  C_40 
REMARK       I    between atoms: C_40  and  N_55 
REMARK   19  A    between atoms: CB_41  and  CG_42 
REMARK   20  A    between atoms: CG_42  and  CD_43 
REMARK   21  A    between atoms: CA_49  and  N_55 
REMARK   22  A    between atoms: CA_49  and  CB_51 
REMARK   23  A    between atoms: CA_49  and  C_50 
REMARK       I    between atoms: C_50  and  N_71 
REMARK   24  A    between atoms: CB_51  and  OG1_57 
REMARK   25  A    between atoms: CA_58  and  CB_60 
REMARK   26  A    between atoms: CA_58  and  N_71 
REMARK   27  A    between atoms: CA_58  and  C_59 
REMARK       I    between atoms: C_59  and  N_80 
REMARK   28  A    between atoms: CB_60  and  CG_61 
REMARK   29  A    between atoms: CA_74  and  N_80 
REMARK   30  A    between atoms: CA_74  and  CB_76 
REMARK   31  A    between atoms: CA_74  and  C_75 
ROOT
ATOM      1  CA  GLU B   4       6.269  88.863  63.745  1.00  0.00     0.177 C 
ENDROOT
BRANCH   1   2
ATOM      2  N   GLU B   4       4.854  89.225  63.748  1.00  0.00    -0.346 N 
ATOM      3  C   TRP B   3       4.130  89.178  64.863  1.00  0.00     0.241 C 
ATOM      4  O   TRP B   3       4.599  88.829  65.946  1.00  0.00    -0.271 OA
ATOM      5  H   GLU B   4       4.430  89.511  62.912  1.00  0.23     0.163 HD
BRANCH   3   6
ATOM      6  CA  TRP B   3       2.664  89.582  64.742  1.00  0.00     0.181 C 
BRANCH   6   7
ATOM      7  CB  TRP B   3       1.921  89.258  66.047  1.00  0.00     0.075 C 
BRANCH   7   8
ATOM      8  CG  TRP B   3       1.231  90.438  66.666  1.00  0.00    -0.028 A 
ATOM      9  CD2 TRP B   3       1.364  90.904  68.014  1.00  0.00    -0.002 A 
ATOM     10  CE2 TRP B   3       0.542  92.039  68.149  1.00  0.00     0.042 A 
ATOM     11  CE3 TRP B   3       2.099  90.471  69.123  1.00  0.00     0.014 A 
ATOM     12  NE1 TRP B   3      -0.062  92.256  66.938  1.00  0.00    -0.365 N 
ATOM     13  CZ2 TRP B   3       0.433  92.744  69.345  1.00  0.00     0.030 A 
ATOM     14  HE1 TRP B   3      -0.692  92.979  66.734  1.00  0.23     0.165 HD
ATOM     15  CD1 TRP B   3       0.358  91.291  66.052  1.00  0.00     0.096 A 
ATOM     16  CH2 TRP B   3       1.162  92.296  70.412  1.00  0.00     0.002 A 
ATOM     17  CZ3 TRP B   3       1.989  91.172  70.309  1.00  0.00     0.001 A 
ENDBRANCH   7   8
ENDBRANCH   6   7
BRANCH   6  18
ATOM     18  N   TRP B   3       2.030  88.926  63.602  1.00  0.00    -0.346 N 
ATOM     19  C   ASP B   2       1.854  87.598  63.557  1.00  0.00     0.241 C 
ATOM     20  O   ASP B   2       2.203  86.859  64.475  1.00  0.00    -0.271 OA
ATOM     21  H   TRP B   3       1.723  89.472  62.847  1.00  0.23     0.163 HD
BRANCH  19  22
ATOM     22  CA  ASP B   2       1.166  87.062  62.325  1.00  0.00     0.186 C 
BRANCH  22  23
ATOM     23  N   ASP B   2       1.970  87.300  61.130  1.00  0.00    -0.345 N 
ATOM     24  C   LYS B   1       1.446  87.861  60.036  1.00  0.00     0.254 C 
ATOM     25  O   LYS B   1       0.249  88.158  59.959  1.00  0.00    -0.271 OA
ATOM     26  H   ASP B   2       2.919  87.042  61.130  1.00  0.00     0.163 HD
BRANCH  24  27
ATOM     27  CA  LYS B   1       2.390  88.068  58.875  1.00  0.00     0.350 C 
BRANCH  27  28
ATOM     28  CB  LYS B   1       2.520  89.577  58.528  1.00  0.00     0.048 C 
BRANCH  28  29
ATOM     29  CG  LYS B   1       3.964  90.119  58.670  1.00  0.00     0.004 C 
BRANCH  29  30
ATOM     30  CD  LYS B   1       4.078  91.470  59.381  1.00  0.00     0.027 C 
BRANCH  30  31
ATOM     31  CE  LYS B   1       4.767  91.271  60.738  1.00  0.00     0.229 C 
BRANCH  31  32
ATOM     32  NZ  LYS B   1       4.208  92.222  61.715  1.00  0.00    -0.079 N 
ATOM     33  HZ1 LYS B   1       4.573  92.031  62.656  1.00  0.00     0.274 HD
ATOM     34  HZ2 LYS B   1       4.478  93.186  61.495  1.00  0.00     0.274 HD
ATOM     35  HZ3 LYS B   1       3.205  92.111  61.677  1.00  0.00     0.274 HD
ENDBRANCH  31  32
ENDBRANCH  30  31
ENDBRANCH  29  30
ENDBRANCH  28  29
ENDBRANCH  27  28
BRANCH  27  36
ATOM     36  N   LYS B   1       1.938  87.336  57.696  1.00  0.00     0.312 N 
ATOM     37  H   LYS B   1       1.361  86.491  57.999  1.00  0.00     0.359 HD
ENDBRANCH  27  36
ENDBRANCH  24  27
ENDBRANCH  22  23
BRANCH  22  38
ATOM     38  CB  ASP B   2       0.852  85.548  62.480  1.00  0.00     0.147 C 
BRANCH  38  39
ATOM     39  CG  ASP B   2       1.843  84.593  61.797  1.00  0.00     0.175 C 
ATOM     40  OD2 ASP B   2       2.924  84.347  62.368  1.00  0.00    -0.648 OA
ATOM     41  OD1 ASP B   2       1.522  84.055  60.716  1.00  0.00    -0.648 OA
ENDBRANCH  38  39
ENDBRANCH  22  38
ENDBRANCH  19  22
ENDBRANCH   6  18
ENDBRANCH   3   6
ENDBRANCH   1   2
BRANCH   1  42
ATOM     42  CB  GLU B   4       6.655  88.220  62.412  1.00  0.00     0.045 C 
BRANCH  42  43
ATOM     43  CG  GLU B   4       5.459  87.807  61.571  1.00  0.00     0.116 C 
BRANCH  43  44
ATOM     44  CD  GLU B   4       5.832  86.866  60.442  1.00  0.00     0.172 C 
ATOM     45  OE2 GLU B   4       5.831  87.309  59.274  1.00  0.00    -0.648 OA
ATOM     46  OE1 GLU B   4       6.126  85.686  60.726  1.00  0.00    -0.648 OA
ENDBRANCH  43  44
ENDBRANCH  42  43
ENDBRANCH   1  42
BRANCH   1  47
ATOM     47  C   GLU B   4       7.144  90.087  63.999  1.00  0.00     0.241 C 
ATOM     48  O   GLU B   4       7.206  90.596  65.118  1.00  0.00    -0.271 OA
ATOM     49  N   THR B   5       7.815  90.555  62.950  1.00  7.70    -0.344 N 
ATOM     50  H   THR B   5       7.720  90.104  62.085  1.00  0.23     0.163 HD
BRANCH  49  51
ATOM     51  CA  THR B   5       8.686  91.722  63.050  1.00  7.88     0.205 C 
BRANCH  51  52
ATOM     52  CB  THR B   5       7.871  93.008  62.900  1.00  4.05     0.146 C 
ATOM     53  CG2 THR B   5       7.558  93.352  61.460  1.00  3.72     0.042 C 
BRANCH  52  54
ATOM     54  OG1 THR B   5       6.640  92.904  63.593  1.00  7.31    -0.393 OA
ATOM     55  HG1 THR B   5       6.218  92.071  63.371  1.00  0.23     0.210 HD
ENDBRANCH  52  54
ENDBRANCH  51  52
BRANCH  51  56
ATOM     56  C   THR B   5       9.426  91.728  64.384  1.00  7.05     0.243 C 
ATOM     57  O   THR B   5       9.290  92.661  65.175  1.00  6.06    -0.271 OA
ATOM     58  N   TRP B   6      10.206  90.681  64.629  1.00  0.00    -0.346 N 
ATOM     59  H   TRP B   6      10.273  89.968  63.961  1.00  0.23     0.163 HD
BRANCH  58  60
ATOM     60  CA  TRP B   6      10.962  90.566  65.869  1.00  0.00     0.181 C 
BRANCH  60  61
ATOM     61  CB  TRP B   6      11.683  91.881  66.172  1.00  0.00     0.075 C 
BRANCH  61  62
ATOM     62  CG  TRP B   6      12.873  92.111  65.291  1.00  0.00    -0.028 A 
ATOM     63  CD2 TRP B   6      13.024  93.143  64.309  1.00  0.00    -0.002 A 
ATOM     64  CE2 TRP B   6      14.297  92.983  63.729  1.00  0.00     0.042 A 
ATOM     65  CE3 TRP B   6      12.207  94.185  63.864  1.00  0.00     0.014 A 
ATOM     66  CZ2 TRP B   6      14.770  93.827  62.729  1.00  0.00     0.030 A 
ATOM     67  NE1 TRP B   6      14.891  91.903  64.331  1.00  0.00    -0.365 N 
ATOM     68  CH2 TRP B   6      13.950  94.840  62.311  1.00  0.00     0.002 A 
ATOM     69  CZ3 TRP B   6      12.679  95.023  62.869  1.00  0.00     0.001 A 
ATOM     70  HE1 TRP B   6      15.785  91.557  64.126  1.00  0.23     0.165 HD
ATOM     71  CD1 TRP B   6      14.029  91.386  65.267  1.00  0.00     0.096 A 
ENDBRANCH  61  62
ENDBRANCH  60  61
BRANCH  60  72
ATOM     72  C   TRP B   6      10.050  90.187  67.031  1.00  0.00     0.241 C 
ATOM     73  N   VAL B   7       9.789  88.891  67.171  1.00  6.11    -0.344 N 
ATOM     74  H   VAL B   7      10.184  88.254  66.540  1.00  0.23     0.163 HD
ATOM     75  O   TRP B   6       9.591  91.050  67.780  1.00  0.00    -0.271 OA
BRANCH  73  76
ATOM     76  CA  VAL B   7       8.929  88.394  68.237  1.00  5.65     0.189 C 
BRANCH  76  77
ATOM     77  CB  VAL B   7       8.464  86.952  67.951  1.00  1.15     0.010 C 
ATOM     78  CG1 VAL B   7       6.973  86.809  68.222  1.00  4.96     0.012 C 
ATOM     79  CG2 VAL B   7       8.792  86.555  66.520  1.00  9.83     0.012 C 
ENDBRANCH  76  77
BRANCH  76  80
ATOM     80  C   VAL B   7       9.645  88.429  69.584  1.00  4.44     0.197 C 
ATOM     81  O   VAL B   7      10.608  87.653  69.759  1.00  0.00    -0.646 OA
ATOM     82  OXT VAL B   7       9.238  89.228  70.451  1.00  0.00    -0.646 OA
ENDBRANCH  76  80
ENDBRANCH  73  76
ENDBRANCH  60  72
ENDBRANCH  58  60
ENDBRANCH  51  56
ENDBRANCH  49  51
ENDBRANCH   1  47
TORSDOF 31
ENDMDL
MODEL 3
REMARK VINA RESULT:      -6.6      2.882      8.399
REMARK  31 active torsions:
REMARK  status: ('A' for Active; 'I' for Inactive)
REMARK    1  A    between atoms: N_1  and  CA_2 
REMARK    2  A    between atoms: CA_2  and  CB_5 
REMARK    3  A    between atoms: CA_2  and  C_3 
REMARK       I    between atoms: C_3  and  N_14 
REMARK    4  A    between atoms: CB_5  and  CG_6 
REMARK    5  A    between atoms: CG_6  and  CD_7 
REMARK    6  A    between atoms: CD_7  and  CE_8 
REMARK    7  A    between atoms: CE_8  and  NZ_9 
REMARK    8  A    between atoms: N_14  and  CA_15 
REMARK    9  A    between atoms: CA_15  and  C_16 
REMARK   10  A    between atoms: CA_15  and  CB_18 
REMARK       I    between atoms: C_16  and  N_36 
REMARK   11  A    between atoms: CB_18  and  CG_19 
REMARK   12  A    between atoms: CA_23  and  CB_25 
REMARK   13  A    between atoms: CA_23  and  C_24 
REMARK   14  A    between atoms: CA_23  and  N_36 
REMARK       I    between atoms: C_24  and  N_45 
REMARK   15  A    between atoms: CB_25  and  CG_26 
REMARK   16  A    between atoms: CA_39  and  N_45 
REMARK   17  A    between atoms: CA_39  and  CB_41 
REMARK   18  A    between atoms: CA_39  and  C_40 
REMARK       I    between atoms: C_40  and  N_55 
REMARK   19  A    between atoms: CB_41  and  CG_42 
REMARK   20  A    between atoms: CG_42  and  CD_43 
REMARK   21  A    between atoms: CA_49  and  N_55 
REMARK   22  A    between atoms: CA_49  and  CB_51 
REMARK   23  A    between atoms: CA_49  and  C_50 
REMARK       I    between atoms: C_50  and  N_71 
REMARK   24  A    between atoms: CB_51  and  OG1_57 
REMARK   25  A    between atoms: CA_58  and  CB_60 
REMARK   26  A    between atoms: CA_58  and  N_71 
REMARK   27  A    between atoms: CA_58  and  C_59 
REMARK       I    between atoms: C_59  and  N_80 
REMARK   28  A    between atoms: CB_60  and  CG_61 
REMARK   29  A    between atoms: CA_74  and  N_80 
REMARK   30  A    between atoms: CA_74  and  CB_76 
REMARK   31  A    between atoms: CA_74  and  C_75 
ROOT
ATOM      1  CA  GLU B   4       6.734  88.452  63.291  1.00  0.00     0.177 C 
ENDROOT
BRANCH   1   2
ATOM      2  N   GLU B   4       5.735  89.335  62.693  1.00  0.00    -0.346 N 
ATOM      3  C   TRP B   3       4.453  89.268  63.044  1.00  0.00     0.241 C 
ATOM      4  O   TRP B   3       4.034  88.469  63.880  1.00  0.00    -0.271 OA
ATOM      5  H   GLU B   4       6.016  89.992  62.022  1.00  0.23     0.163 HD
BRANCH   3   6
ATOM      6  CA  TRP B   3       3.505  90.243  62.353  1.00  0.00     0.181 C 
BRANCH   6   7
ATOM      7  CB  TRP B   3       3.238  89.783  60.913  1.00  0.00     0.075 C 
BRANCH   7   8
ATOM      8  CG  TRP B   3       2.161  88.745  60.793  1.00  0.00    -0.028 A 
ATOM      9  CD2 TRP B   3       2.319  87.324  60.896  1.00  0.00    -0.002 A 
ATOM     10  CE2 TRP B   3       1.046  86.747  60.728  1.00  0.00     0.042 A 
ATOM     11  CE3 TRP B   3       3.415  86.482  61.114  1.00  0.00     0.014 A 
ATOM     12  NE1 TRP B   3       0.154  87.769  60.533  1.00  0.00    -0.365 N 
ATOM     13  CZ2 TRP B   3       0.839  85.371  60.769  1.00  0.00     0.030 A 
ATOM     14  HE1 TRP B   3      -0.810  87.667  60.387  1.00  0.23     0.165 HD
ATOM     15  CD1 TRP B   3       0.831  88.966  60.575  1.00  0.00     0.096 A 
ATOM     16  CH2 TRP B   3       1.929  84.573  60.982  1.00  0.00     0.002 A 
ATOM     17  CZ3 TRP B   3       3.207  85.116  61.155  1.00  0.00     0.001 A 
ENDBRANCH   7   8
ENDBRANCH   6   7
BRANCH   6  18
ATOM     18  N   TRP B   3       4.038  91.603  62.379  1.00  0.00    -0.346 N 
ATOM     19  C   ASP B   2       4.816  92.076  61.395  1.00  0.00     0.241 C 
ATOM     20  O   ASP B   2       5.115  91.402  60.412  1.00  0.00    -0.271 OA
ATOM     21  H   TRP B   3       3.821  92.187  63.136  1.00  0.23     0.163 HD
BRANCH  19  22
ATOM     22  CA  ASP B   2       5.278  93.506  61.546  1.00  0.00     0.186 C 
BRANCH  22  23
ATOM     23  N   ASP B   2       6.729  93.577  61.683  1.00  0.00    -0.345 N 
ATOM     24  C   LYS B   1       7.379  92.864  62.608  1.00  0.00     0.254 C 
ATOM     25  O   LYS B   1       6.785  92.152  63.425  1.00  0.00    -0.271 OA
ATOM     26  H   ASP B   2       7.240  94.163  61.082  1.00  0.00     0.163 HD
BRANCH  24  27
ATOM     27  CA  LYS B   1       8.882  93.014  62.633  1.00  0.00     0.350 C 
BRANCH  27  28
ATOM     28  CB  LYS B   1       9.381  93.363  64.062  1.00  0.00     0.048 C 
BRANCH  28  29
ATOM     29  CG  LYS B   1      10.354  92.309  64.648  1.00  0.00     0.004 C 
BRANCH  29  30
ATOM     30  CD  LYS B   1      11.744  92.289  64.006  1.00  0.00     0.027 C 
BRANCH  30  31
ATOM     31  CE  LYS B   1      12.266  90.846  63.974  1.00  0.00     0.229 C 
BRANCH  31  32
ATOM     32  NZ  LYS B   1      11.156  89.931  63.662  1.00  0.00    -0.079 N 
ATOM     33  HZ1 LYS B   1      10.611  90.280  62.864  1.00  0.00     0.274 HD
ATOM     34  HZ2 LYS B   1      11.500  89.005  63.388  1.00  0.00     0.274 HD
ATOM     35  HZ3 LYS B   1      10.592  89.871  64.498  1.00  0.00     0.274 HD
ENDBRANCH  31  32
ENDBRANCH  30  31
ENDBRANCH  29  30
ENDBRANCH  28  29
ENDBRANCH  27  28
BRANCH  27  36
ATOM     36  N   LYS B   1       9.320  94.048  61.700  1.00  0.00     0.312 N 
ATOM     37  H   LYS B   1      10.280  93.794  61.309  1.00  0.00     0.359 HD
ENDBRANCH  27  36
ENDBRANCH  24  27
ENDBRANCH  22  23
BRANCH  22  38
ATOM     38  CB  ASP B   2       4.799  94.372  60.348  1.00  0.00     0.147 C 
BRANCH  38  39
ATOM     39  CG  ASP B   2       5.807  94.530  59.200  1.00  0.00     0.175 C 
ATOM     40  OD2 ASP B   2       7.000  94.764  59.481  1.00  0.00    -0.648 OA
ATOM     41  OD1 ASP B   2       5.418  94.376  58.023  1.00  0.00    -0.648 OA
ENDBRANCH  38  39
ENDBRANCH  22  38
ENDBRANCH  19  22
ENDBRANCH   6  18
ENDBRANCH   3   6
ENDBRANCH   1   2
BRANCH   1  42
ATOM     42  CB  GLU B   4       7.846  88.142  62.288  1.00  0.00     0.045 C 
BRANCH  42  43
ATOM     43  CG  GLU B   4       7.374  87.325  61.097  1.00  0.00     0.116 C 
BRANCH  43  44
ATOM     44  CD  GLU B   4       7.316  88.134  59.815  1.00  0.00     0.172 C 
ATOM     45  OE2 GLU B   4       7.157  87.527  58.736  1.00  0.00    -0.648 OA
ATOM     46  OE1 GLU B   4       7.431  89.375  59.892  1.00  0.00    -0.648 OA
ENDBRANCH  43  44
ENDBRANCH  42  43
ENDBRANCH   1  42
BRANCH   1  47
ATOM     47  C   GLU B   4       7.333  89.080  64.546  1.00  0.00     0.241 C 
ATOM     48  O   GLU B   4       8.547  89.045  64.751  1.00  0.00    -0.271 OA
ATOM     49  N   THR B   5       6.473  89.651  65.384  1.00  7.70    -0.344 N 
ATOM     50  H   THR B   5       5.517  89.643  65.163  1.00  0.23     0.163 HD
BRANCH  49  51
ATOM     51  CA  THR B   5       6.908  90.287  66.624  1.00  7.88     0.205 C 
BRANCH  51  52
ATOM     52  CB  THR B   5       6.232  91.649  66.788  1.00  4.05     0.146 C 
ATOM     53  CG2 THR B   5       7.202  92.809  66.719  1.00  3.72     0.042 C 
BRANCH  52  54
ATOM     54  OG1 THR B   5       5.255  91.847  65.782  1.00  7.31    -0.393 OA
ATOM     55  HG1 THR B   5       4.655  92.546  66.052  1.00  0.23     0.210 HD
ENDBRANCH  52  54
ENDBRANCH  51  52
BRANCH  51  56
ATOM     56  C   THR B   5       6.589  89.400  67.823  1.00  7.05     0.243 C 
ATOM     57  O   THR B   5       6.464  88.183  67.691  1.00  6.06    -0.271 OA
ATOM     58  N   TRP B   6       6.460  90.016  68.993  1.00  0.00    -0.346 N 
ATOM     59  H   TRP B   6       6.572  90.989  69.036  1.00  0.23     0.163 HD
BRANCH  58  60
ATOM     60  CA  TRP B   6       6.160  89.281  70.215  1.00  0.00     0.181 C 
BRANCH  60  61
ATOM     61  CB  TRP B   6       4.789  88.612  70.105  1.00  0.00     0.075 C 
BRANCH  61  62
ATOM     62  CG  TRP B   6       3.655  89.559  70.354  1.00  0.00    -0.028 A 
ATOM     63  CD2 TRP B   6       2.909  90.281  69.366  1.00  0.00    -0.002 A 
ATOM     64  CE2 TRP B   6       1.940  91.040  70.049  1.00  0.00     0.042 A 
ATOM     65  CE3 TRP B   6       2.968  90.358  67.972  1.00  0.00     0.014 A 
ATOM     66  CZ2 TRP B   6       1.037  91.865  69.383  1.00  0.00     0.030 A 
ATOM     67  NE1 TRP B   6       2.090  90.791  71.388  1.00  0.00    -0.365 N 
ATOM     68  CH2 TRP B   6       1.116  91.923  68.018  1.00  0.00     0.002 A 
ATOM     69  CZ3 TRP B   6       2.070  91.179  67.313  1.00  0.00     0.001 A 
ATOM     70  HE1 TRP B   6       1.549  91.184  72.105  1.00  0.23     0.165 HD
ATOM     71  CD1 TRP B   6       3.122  89.901  71.562  1.00  0.00     0.096 A 
ENDBRANCH  61  62
ENDBRANCH  60  61
BRANCH  60  72
ATOM     72  C   TRP B   6       7.233  88.236  70.500  1.00  0.00     0.241 C 
ATOM     73  N   VAL B   7       6.856  86.966  70.392  1.00  6.11    -0.344 N 
ATOM     74  H   VAL B   7       5.932  86.763  70.140  1.00  0.23     0.163 HD
ATOM     75  O   TRP B   6       8.375  88.574  70.814  1.00  0.00    -0.271 OA
BRANCH  73  76
ATOM     76  CA  VAL B   7       7.782  85.868  70.641  1.00  5.65     0.189 C 
BRANCH  76  77
ATOM     77  CB  VAL B   7       7.026  84.558  70.940  1.00  1.15     0.010 C 
ATOM     78  CG1 VAL B   7       5.800  84.434  70.047  1.00  4.96     0.012 C 
ATOM     79  CG2 VAL B   7       7.943  83.357  70.767  1.00  9.83     0.012 C 
ENDBRANCH  76  77
BRANCH  76  80
ATOM     80  C   VAL B   7       8.709  85.648  69.449  1.00  4.44     0.197 C 
ATOM     81  O   VAL B   7       8.192  85.433  68.333  1.00  0.00    -0.646 OA
ATOM     82  OXT VAL B   7       9.941  85.692  69.641  1.00  0.00    -0.646 OA
ENDBRANCH  76  80
ENDBRANCH  73  76
ENDBRANCH  60  72
ENDBRANCH  58  60
ENDBRANCH  51  56
ENDBRANCH  49  51
ENDBRANCH   1  47
TORSDOF 31
ENDMDL
MODEL 4
REMARK VINA RESULT:      -4.5      3.116      8.927
REMARK  31 active torsions:
REMARK  status: ('A' for Active; 'I' for Inactive)
REMARK    1  A    between atoms: N_1  and  CA_2 
REMARK    2  A    between atoms: CA_2  and  CB_5 
REMARK    3  A    between atoms: CA_2  and  C_3 
REMARK       I    between atoms: C_3  and  N_14 
REMARK    4  A    between atoms: CB_5  and  CG_6 
REMARK    5  A    between atoms: CG_6  and  CD_7 
REMARK    6  A    between atoms: CD_7  and  CE_8 
REMARK    7  A    between atoms: CE_8  and  NZ_9 
REMARK    8  A    between atoms: N_14  and  CA_15 
REMARK    9  A    between atoms: CA_15  and  C_16 
REMARK   10  A    between atoms: CA_15  and  CB_18 
REMARK       I    between atoms: C_16  and  N_36 
REMARK   11  A    between atoms: CB_18  and  CG_19 
REMARK   12  A    between atoms: CA_23  and  CB_25 
REMARK   13  A    between atoms: CA_23  and  C_24 
REMARK   14  A    between atoms: CA_23  and  N_36 
REMARK       I    between atoms: C_24  and  N_45 
REMARK   15  A    between atoms: CB_25  and  CG_26 
REMARK   16  A    between atoms: CA_39  and  N_45 
REMARK   17  A    between atoms: CA_39  and  CB_41 
REMARK   18  A    between atoms: CA_39  and  C_40 
REMARK       I    between atoms: C_40  and  N_55 
REMARK   19  A    between atoms: CB_41  and  CG_42 
REMARK   20  A    between atoms: CG_42  and  CD_43 
REMARK   21  A    between atoms: CA_49  and  N_55 
REMARK   22  A    between atoms: CA_49  and  CB_51 
REMARK   23  A    between atoms: CA_49  and  C_50 
REMARK       I    between atoms: C_50  and  N_71 
REMARK   24  A    between atoms: CB_51  and  OG1_57 
REMARK   25  A    between atoms: CA_58  and  CB_60 
REMARK   26  A    between atoms: CA_58  and  N_71 
REMARK   27  A    between atoms: CA_58  and  C_59 
REMARK       I    between atoms: C_59  and  N_80 
REMARK   28  A    between atoms: CB_60  and  CG_61 
REMARK   29  A    between atoms: CA_74  and  N_80 
REMARK   30  A    between atoms: CA_74  and  CB_76 
REMARK   31  A    between atoms: CA_74  and  C_75 
ROOT
ATOM      1  CA  GLU B   4       6.859  88.218  63.320  1.00  0.00     0.177 C 
ENDROOT
BRANCH   1   2
ATOM      2  N   GLU B   4       5.736  89.100  63.010  1.00  0.00    -0.346 N 
ATOM      3  C   TRP B   3       4.492  88.788  63.363  1.00  0.00     0.241 C 
ATOM      4  O   TRP B   3       4.212  87.751  63.963  1.00  0.00    -0.271 OA
ATOM      5  H   GLU B   4       5.904  89.940  62.533  1.00  0.23     0.163 HD
BRANCH   3   6
ATOM      6  CA  TRP B   3       3.404  89.788  62.986  1.00  0.00     0.181 C 
BRANCH   6   7
ATOM      7  CB  TRP B   3       3.098  89.689  61.484  1.00  0.00     0.075 C 
BRANCH   7   8
ATOM      8  CG  TRP B   3       3.113  88.287  60.949  1.00  0.00    -0.028 A 
ATOM      9  CD2 TRP B   3       2.212  87.226  61.288  1.00  0.00    -0.002 A 
ATOM     10  CE2 TRP B   3       2.596  86.096  60.541  1.00  0.00     0.042 A 
ATOM     11  CE3 TRP B   3       1.116  87.121  62.151  1.00  0.00     0.014 A 
ATOM     12  NE1 TRP B   3       3.679  86.453  59.782  1.00  0.00    -0.365 N 
ATOM     13  CZ2 TRP B   3       1.926  84.878  60.633  1.00  0.00     0.030 A 
ATOM     14  HE1 TRP B   3       4.161  85.866  59.162  1.00  0.23     0.165 HD
ATOM     15  CD1 TRP B   3       3.982  87.771  60.031  1.00  0.00     0.096 A 
ATOM     16  CH2 TRP B   3       0.860  84.805  61.487  1.00  0.00     0.002 A 
ATOM     17  CZ3 TRP B   3       0.453  85.912  62.241  1.00  0.00     0.001 A 
ENDBRANCH   7   8
ENDBRANCH   6   7
BRANCH   6  18
ATOM     18  N   TRP B   3       3.790  91.148  63.353  1.00  0.00    -0.346 N 
ATOM     19  C   ASP B   2       4.632  91.872  62.603  1.00  0.00     0.241 C 
ATOM     20  O   ASP B   2       5.117  91.440  61.560  1.00  0.00    -0.271 OA
ATOM     21  H   TRP B   3       3.422  91.544  64.172  1.00  0.23     0.163 HD
BRANCH  19  22
ATOM     22  CA  ASP B   2       4.925  93.269  63.096  1.00  0.00     0.186 C 
BRANCH  22  23
ATOM     23  N   ASP B   2       6.085  93.280  63.981  1.00  0.00    -0.345 N 
ATOM     24  C   LYS B   1       7.327  93.143  63.507  1.00  0.00     0.254 C 
ATOM     25  O   LYS B   1       7.554  92.947  62.308  1.00  0.00    -0.271 OA
ATOM     26  H   ASP B   2       5.950  93.392  64.948  1.00  0.00     0.163 HD
BRANCH  24  27
ATOM     27  CA  LYS B   1       8.440  93.191  64.527  1.00  0.00     0.350 C 
BRANCH  27  28
ATOM     28  CB  LYS B   1       9.492  92.081  64.254  1.00  0.00     0.048 C 
BRANCH  28  29
ATOM     29  CG  LYS B   1      10.787  92.241  65.088  1.00  0.00     0.004 C 
BRANCH  29  30
ATOM     30  CD  LYS B   1      11.547  93.549  64.852  1.00  0.00     0.027 C 
BRANCH  30  31
ATOM     31  CE  LYS B   1      12.631  93.320  63.790  1.00  0.00     0.229 C 
BRANCH  31  32
ATOM     32  NZ  LYS B   1      13.527  94.488  63.744  1.00  0.00    -0.079 N 
ATOM     33  HZ1 LYS B   1      12.988  95.356  63.640  1.00  0.00     0.274 HD
ATOM     34  HZ2 LYS B   1      14.058  94.586  64.616  1.00  0.00     0.274 HD
ATOM     35  HZ3 LYS B   1      14.148  94.340  62.961  1.00  0.00     0.274 HD
ENDBRANCH  31  32
ENDBRANCH  30  31
ENDBRANCH  29  30
ENDBRANCH  28  29
ENDBRANCH  27  28
BRANCH  27  36
ATOM     36  N   LYS B   1       7.915  93.040  65.882  1.00  0.00     0.312 N 
ATOM     37  H   LYS B   1       8.717  92.829  66.554  1.00  0.00     0.359 HD
ENDBRANCH  27  36
ENDBRANCH  24  27
ENDBRANCH  22  23
BRANCH  22  38
ATOM     38  CB  ASP B   2       5.136  94.244  61.904  1.00  0.00     0.147 C 
BRANCH  38  39
ATOM     39  CG  ASP B   2       3.880  94.563  61.080  1.00  0.00     0.175 C 
ATOM     40  OD2 ASP B   2       3.095  95.437  61.502  1.00  0.00    -0.648 OA
ATOM     41  OD1 ASP B   2       3.701  93.976  59.992  1.00  0.00    -0.648 OA
ENDBRANCH  38  39
ENDBRANCH  22  38
ENDBRANCH  19  22
ENDBRANCH   6  18
ENDBRANCH   3   6
ENDBRANCH   1   2
BRANCH   1  42
ATOM     42  CB  GLU B   4       7.926  88.303  62.229  1.00  0.00     0.045 C 
BRANCH  42  43
ATOM     43  CG  GLU B   4       7.460  89.040  60.983  1.00  0.00     0.116 C 
BRANCH  43  44
ATOM     44  CD  GLU B   4       7.698  88.249  59.711  1.00  0.00     0.172 C 
ATOM     45  OE2 GLU B   4       7.883  88.878  58.648  1.00  0.00    -0.648 OA
ATOM     46  OE1 GLU B   4       7.701  87.003  59.778  1.00  0.00    -0.648 OA
ENDBRANCH  43  44
ENDBRANCH  42  43
ENDBRANCH   1  42
BRANCH   1  47
ATOM     47  C   GLU B   4       7.474  88.576  64.670  1.00  0.00     0.241 C 
ATOM     48  O   GLU B   4       8.696  88.613  64.816  1.00  0.00    -0.271 OA
ATOM     49  N   THR B   5       6.617  88.835  65.654  1.00  7.70    -0.344 N 
ATOM     50  H   THR B   5       5.655  88.787  65.472  1.00  0.23     0.163 HD
BRANCH  49  51
ATOM     51  CA  THR B   5       7.067  89.187  66.997  1.00  7.88     0.205 C 
BRANCH  51  52
ATOM     52  CB  THR B   5       6.522  90.559  67.397  1.00  4.05     0.146 C 
ATOM     53  CG2 THR B   5       5.015  90.653  67.304  1.00  3.72     0.042 C 
BRANCH  52  54
ATOM     54  OG1 THR B   5       6.890  90.876  68.728  1.00  7.31    -0.393 OA
ATOM     55  HG1 THR B   5       6.976  90.067  69.237  1.00  0.23     0.210 HD
ENDBRANCH  52  54
ENDBRANCH  51  52
BRANCH  51  56
ATOM     56  C   THR B   5       6.620  88.135  68.007  1.00  7.05     0.243 C 
ATOM     57  O   THR B   5       6.942  86.955  67.871  1.00  6.06    -0.271 OA
ATOM     58  N   TRP B   6       5.880  88.570  69.021  1.00  0.00    -0.346 N 
ATOM     59  H   TRP B   6       5.657  89.523  69.077  1.00  0.23     0.163 HD
BRANCH  58  60
ATOM     60  CA  TRP B   6       5.394  87.665  70.054  1.00  0.00     0.181 C 
BRANCH  60  61
ATOM     61  CB  TRP B   6       4.478  86.606  69.440  1.00  0.00     0.075 C 
BRANCH  61  62
ATOM     62  CG  TRP B   6       3.120  87.136  69.095  1.00  0.00    -0.028 A 
ATOM     63  CD2 TRP B   6       2.336  86.799  67.945  1.00  0.00    -0.002 A 
ATOM     64  CE2 TRP B   6       1.133  87.525  68.033  1.00  0.00     0.042 A 
ATOM     65  CE3 TRP B   6       2.535  85.954  66.849  1.00  0.00     0.014 A 
ATOM     66  CZ2 TRP B   6       0.135  87.430  67.067  1.00  0.00     0.030 A 
ATOM     67  NE1 TRP B   6       1.184  88.269  69.183  1.00  0.00    -0.365 N 
ATOM     68  CH2 TRP B   6       0.355  86.597  66.005  1.00  0.00     0.002 A 
ATOM     69  CZ3 TRP B   6       1.541  85.862  65.891  1.00  0.00     0.001 A 
ATOM     70  HE1 TRP B   6       0.482  88.873  69.503  1.00  0.23     0.165 HD
ATOM     71  CD1 TRP B   6       2.381  88.029  69.815  1.00  0.00     0.096 A 
ENDBRANCH  61  62
ENDBRANCH  60  61
BRANCH  60  72
ATOM     72  C   TRP B   6       6.555  86.998  70.785  1.00  0.00     0.241 C 
ATOM     73  N   VAL B   7       6.734  85.703  70.538  1.00  6.11    -0.344 N 
ATOM     74  H   VAL B   7       6.130  85.249  69.914  1.00  0.23     0.163 HD
ATOM     75  O   TRP B   6       7.268  87.640  71.556  1.00  0.00    -0.271 OA
BRANCH  73  76
ATOM     76  CA  VAL B   7       7.804  84.944  71.172  1.00  5.65     0.189 C 
BRANCH  76  77
ATOM     77  CB  VAL B   7       7.461  83.442  71.232  1.00  1.15     0.010 C 
ATOM     78  CG1 VAL B   7       6.842  82.983  69.920  1.00  4.96     0.012 C 
ATOM     79  CG2 VAL B   7       8.699  82.621  71.562  1.00  9.83     0.012 C 
ENDBRANCH  76  77
BRANCH  76  80
ATOM     80  C   VAL B   7       9.123  85.125  70.428  1.00  4.44     0.197 C 
ATOM     81  O   VAL B   7       9.106  85.084  69.180  1.00  0.00    -0.646 OA
ATOM     82  OXT VAL B   7      10.161  85.304  71.098  1.00  0.00    -0.646 OA
ENDBRANCH  76  80
ENDBRANCH  73  76
ENDBRANCH  60  72
ENDBRANCH  58  60
ENDBRANCH  51  56
ENDBRANCH  49  51
ENDBRANCH   1  47
TORSDOF 31
ENDMDL
