MODEL 1
REMARK VINA RESULT:      -7.9      0.000      0.000
REMARK  29 active torsions:
REMARK  status: ('A' for Active; 'I' for Inactive)
REMARK    1  A    between atoms: N_1  and  CA_2 
REMARK    2  A    between atoms: CA_2  and  CB_5 
REMARK    3  A    between atoms: CA_2  and  C_3 
REMARK       I    between atoms: C_3  and  N_14 
REMARK    4  A    between atoms: CB_5  and  CG_6 
REMARK    5  A    between atoms: CG_6  and  CD_7 
REMARK    6  A    between atoms: CD_7  and  CE_8 
REMARK    7  A    between atoms: CE_8  and  NZ_9 
REMARK    8  A    between atoms: N_14  and  CA_15 
REMARK    9  A    between atoms: CA_15  and  C_16 
REMARK       I    between atoms: C_16  and  N_33 
REMARK   10  A    between atoms: CA_20  and  CB_22 
REMARK   11  A    between atoms: CA_20  and  C_21 
REMARK   12  A    between atoms: CA_20  and  N_33 
REMARK       I    between atoms: C_21  and  N_42 
REMARK   13  A    between atoms: CB_22  and  CG_23 
REMARK   14  A    between atoms: CA_36  and  N_42 
REMARK   15  A    between atoms: CA_36  and  CB_38 
REMARK   16  A    between atoms: CA_36  and  C_37 
REMARK       I    between atoms: C_37  and  N_52 
REMARK   17  A    between atoms: CB_38  and  CG_39 
REMARK   18  A    between atoms: CG_39  and  CD_40 
REMARK   19  A    between atoms: CA_46  and  N_52 
REMARK   20  A    between atoms: CA_46  and  CB_48 
REMARK   21  A    between atoms: CA_46  and  C_47 
REMARK       I    between atoms: C_47  and  N_68 
REMARK   22  A    between atoms: CB_48  and  OG1_54 
REMARK   23  A    between atoms: CA_55  and  CB_57 
REMARK   24  A    between atoms: CA_55  and  N_68 
REMARK   25  A    between atoms: CA_55  and  C_56 
REMARK       I    between atoms: C_56  and  N_77 
REMARK   26  A    between atoms: CB_57  and  CG_58 
REMARK   27  A    between atoms: CA_71  and  N_77 
REMARK   28  A    between atoms: CA_71  and  CB_73 
REMARK   29  A    between atoms: CA_71  and  C_72 
ROOT
ATOM      1  CA  GLU B   4       5.520  92.286  62.999  1.00  0.00     0.177 C 
ENDROOT
BRANCH   1   2
ATOM      2  N   GLU B   4       6.835  92.049  63.590  1.00  0.00    -0.346 N 
ATOM      3  C   TRP B   3       7.151  92.531  64.789  1.00  0.00     0.241 C 
ATOM      4  O   TRP B   3       6.370  93.198  65.465  1.00  0.00    -0.271 OA
ATOM      5  H   GLU B   4       7.495  91.523  63.093  1.00  0.23     0.163 HD
BRANCH   3   6
ATOM      6  CA  TRP B   3       8.553  92.217  65.302  1.00  0.00     0.181 C 
BRANCH   6   7
ATOM      7  CB  TRP B   3       8.515  91.978  66.819  1.00  0.00     0.075 C 
BRANCH   7   8
ATOM      8  CG  TRP B   3       9.081  90.654  67.243  1.00  0.00    -0.028 A 
ATOM      9  CD1 TRP B   3       9.617  89.695  66.433  1.00  0.00     0.096 A 
ATOM     10  NE1 TRP B   3      10.024  88.616  67.182  1.00  0.00    -0.365 N 
ATOM     11  HE1 TRP B   3      10.441  87.803  66.828  1.00  0.23     0.165 HD
ATOM     12  CE2 TRP B   3       9.752  88.865  68.502  1.00  0.00     0.042 A 
ATOM     13  CZ2 TRP B   3       9.979  88.079  69.629  1.00  0.00     0.030 A 
ATOM     14  CD2 TRP B   3       9.156  90.139  68.578  1.00  0.00    -0.002 A 
ATOM     15  CH2 TRP B   3       9.601  88.587  70.842  1.00  0.00     0.002 A 
ATOM     16  CZ3 TRP B   3       9.006  89.849  70.949  1.00  0.00     0.001 A 
ATOM     17  CE3 TRP B   3       8.779  90.630  69.832  1.00  0.00     0.014 A 
ENDBRANCH   7   8
ENDBRANCH   6   7
BRANCH   6  18
ATOM     18  N   TRP B   3       9.490  93.285  64.963  1.00  0.00    -0.346 N 
ATOM     19  C   ALA B   2      10.570  93.063  64.200  1.00  0.00     0.240 C 
ATOM     20  O   ALA B   2      10.825  91.957  63.730  1.00  0.00    -0.271 OA
ATOM     21  H   TRP B   3       9.326  94.190  65.303  1.00  0.23     0.163 HD
BRANCH  19  22
ATOM     22  CA  ALA B   2      11.436  94.267  63.914  1.00  0.00     0.172 C 
ATOM     23  CB  ALA B   2      10.710  95.339  63.085  1.00  0.00     0.042 C 
BRANCH  22  24
ATOM     24  N   ALA B   2      12.640  93.882  63.183  1.00  0.00    -0.346 N 
ATOM     25  C   LYS B   1      13.758  94.610  63.245  1.00  0.00     0.254 C 
ATOM     26  O   LYS B   1      13.817  95.670  63.878  1.00  0.00    -0.271 OA
ATOM     27  H   ALA B   2      12.627  93.069  62.631  1.00  0.00     0.163 HD
BRANCH  25  28
ATOM     28  CA  LYS B   1      14.938  94.092  62.457  1.00  0.00     0.350 C 
BRANCH  28  29
ATOM     29  CB  LYS B   1      14.948  92.539  62.430  1.00  0.00     0.048 C 
BRANCH  29  30
ATOM     30  CG  LYS B   1      15.228  91.901  63.813  1.00  0.00     0.004 C 
BRANCH  30  31
ATOM     31  CD  LYS B   1      14.168  90.903  64.289  1.00  0.00     0.027 C 
BRANCH  31  32
ATOM     32  CE  LYS B   1      13.685  91.307  65.688  1.00  0.00     0.229 C 
BRANCH  32  33
ATOM     33  NZ  LYS B   1      13.267  90.104  66.428  1.00  0.00    -0.079 N 
ATOM     34  HZ1 LYS B   1      13.819  89.996  67.287  1.00  0.00     0.274 HD
ATOM     35  HZ2 LYS B   1      12.288  90.169  66.726  1.00  0.00     0.274 HD
ATOM     36  HZ3 LYS B   1      13.400  89.323  65.801  1.00  0.00     0.274 HD
ENDBRANCH  32  33
ENDBRANCH  31  32
ENDBRANCH  30  31
ENDBRANCH  29  30
ENDBRANCH  28  29
BRANCH  28  37
ATOM     37  N   LYS B   1      16.196  94.576  63.018  1.00  0.00     0.312 N 
ATOM     38  H   LYS B   1      16.812  94.961  62.235  1.00  0.00     0.359 HD
ENDBRANCH  28  37
ENDBRANCH  25  28
ENDBRANCH  22  24
ENDBRANCH  19  22
ENDBRANCH   6  18
ENDBRANCH   3   6
ENDBRANCH   1   2
BRANCH   1  39
ATOM     39  CB  GLU B   4       5.512  93.599  62.215  1.00  0.00     0.045 C 
BRANCH  39  40
ATOM     40  CG  GLU B   4       6.703  93.755  61.285  1.00  0.00     0.116 C 
BRANCH  40  41
ATOM     41  CD  GLU B   4       6.298  94.117  59.868  1.00  0.00     0.172 C 
ATOM     42  OE2 GLU B   4       7.032  94.892  59.221  1.00  0.00    -0.648 OA
ATOM     43  OE1 GLU B   4       5.247  93.624  59.408  1.00  0.00    -0.648 OA
ENDBRANCH  40  41
ENDBRANCH  39  40
ENDBRANCH   1  39
BRANCH   1  44
ATOM     44  C   GLU B   4       5.122  91.135  62.079  1.00  0.00     0.241 C 
ATOM     45  O   GLU B   4       5.627  90.020  62.211  1.00  0.00    -0.271 OA
ATOM     46  N   THR B   5       4.218  91.417  61.146  1.00  7.70    -0.344 N 
ATOM     47  H   THR B   5       3.856  92.327  61.094  1.00  0.23     0.163 HD
BRANCH  46  48
ATOM     48  CA  THR B   5       3.749  90.412  60.196  1.00  7.88     0.205 C 
BRANCH  48  49
ATOM     49  CB  THR B   5       4.937  89.723  59.524  1.00  4.05     0.146 C 
ATOM     50  CG2 THR B   5       4.669  89.337  58.086  1.00  3.72     0.042 C 
BRANCH  49  51
ATOM     51  OG1 THR B   5       6.077  90.564  59.536  1.00  7.31    -0.393 OA
ATOM     52  HG1 THR B   5       6.832  90.085  59.190  1.00  0.23     0.210 HD
ENDBRANCH  49  51
ENDBRANCH  48  49
BRANCH  48  53
ATOM     53  C   THR B   5       2.876  89.376  60.897  1.00  7.05     0.243 C 
ATOM     54  O   THR B   5       1.651  89.403  60.780  1.00  6.06    -0.271 OA
ATOM     55  N   TRP B   6       3.513  88.464  61.623  1.00  0.00    -0.346 N 
ATOM     56  H   TRP B   6       4.491  88.493  61.678  1.00  0.23     0.163 HD
BRANCH  55  57
ATOM     57  CA  TRP B   6       2.792  87.419  62.338  1.00  0.00     0.181 C 
BRANCH  57  58
ATOM     58  CB  TRP B   6       3.348  86.044  61.964  1.00  0.00     0.075 C 
BRANCH  58  59
ATOM     59  CG  TRP B   6       3.705  85.933  60.514  1.00  0.00    -0.028 A 
ATOM     60  CD2 TRP B   6       5.025  85.863  59.959  1.00  0.00    -0.002 A 
ATOM     61  CE2 TRP B   6       4.885  85.761  58.562  1.00  0.00     0.042 A 
ATOM     62  CE3 TRP B   6       6.309  85.877  60.509  1.00  0.00     0.014 A 
ATOM     63  CZ2 TRP B   6       5.982  85.672  57.710  1.00  0.00     0.030 A 
ATOM     64  NE1 TRP B   6       3.543  85.769  58.281  1.00  0.00    -0.365 N 
ATOM     65  CH2 TRP B   6       7.228  85.689  58.274  1.00  0.00     0.002 A 
ATOM     66  CZ3 TRP B   6       7.398  85.790  59.660  1.00  0.00     0.001 A 
ATOM     67  HE1 TRP B   6       3.148  85.710  57.386  1.00  0.23     0.165 HD
ATOM     68  CD1 TRP B   6       2.842  85.873  59.458  1.00  0.00     0.096 A 
ENDBRANCH  58  59
ENDBRANCH  57  58
BRANCH  57  69
ATOM     69  C   TRP B   6       2.881  87.629  63.847  1.00  0.00     0.241 C 
ATOM     70  N   VAL B   7       3.574  88.690  64.249  1.00  6.11    -0.344 N 
ATOM     71  H   VAL B   7       3.984  89.274  63.578  1.00  0.23     0.163 HD
ATOM     72  O   TRP B   6       2.338  86.846  64.626  1.00  0.00    -0.271 OA
BRANCH  70  73
ATOM     73  CA  VAL B   7       3.740  89.005  65.662  1.00  5.65     0.189 C 
BRANCH  73  74
ATOM     74  CB  VAL B   7       5.064  89.752  65.914  1.00  1.15     0.010 C 
ATOM     75  CG1 VAL B   7       5.247  90.028  67.400  1.00  4.96     0.012 C 
ATOM     76  CG2 VAL B   7       6.241  88.961  65.363  1.00  9.83     0.012 C 
ENDBRANCH  73  74
BRANCH  73  77
ATOM     77  C   VAL B   7       2.582  89.856  66.176  1.00  4.44     0.197 C 
ATOM     78  O   VAL B   7       2.441  91.005  65.708  1.00  0.00    -0.646 OA
ATOM     79  OXT VAL B   7       1.828  89.367  67.042  1.00  0.00    -0.646 OA
ENDBRANCH  73  77
ENDBRANCH  70  73
ENDBRANCH  57  69
ENDBRANCH  55  57
ENDBRANCH  48  53
ENDBRANCH  46  48
ENDBRANCH   1  44
TORSDOF 29
ENDMDL
MODEL 2
REMARK VINA RESULT:      -7.9      1.890      2.559
REMARK  29 active torsions:
REMARK  status: ('A' for Active; 'I' for Inactive)
REMARK    1  A    between atoms: N_1  and  CA_2 
REMARK    2  A    between atoms: CA_2  and  CB_5 
REMARK    3  A    between atoms: CA_2  and  C_3 
REMARK       I    between atoms: C_3  and  N_14 
REMARK    4  A    between atoms: CB_5  and  CG_6 
REMARK    5  A    between atoms: CG_6  and  CD_7 
REMARK    6  A    between atoms: CD_7  and  CE_8 
REMARK    7  A    between atoms: CE_8  and  NZ_9 
REMARK    8  A    between atoms: N_14  and  CA_15 
REMARK    9  A    between atoms: CA_15  and  C_16 
REMARK       I    between atoms: C_16  and  N_33 
REMARK   10  A    between atoms: CA_20  and  CB_22 
REMARK   11  A    between atoms: CA_20  and  C_21 
REMARK   12  A    between atoms: CA_20  and  N_33 
REMARK       I    between atoms: C_21  and  N_42 
REMARK   13  A    between atoms: CB_22  and  CG_23 
REMARK   14  A    between atoms: CA_36  and  N_42 
REMARK   15  A    between atoms: CA_36  and  CB_38 
REMARK   16  A    between atoms: CA_36  and  C_37 
REMARK       I    between atoms: C_37  and  N_52 
REMARK   17  A    between atoms: CB_38  and  CG_39 
REMARK   18  A    between atoms: CG_39  and  CD_40 
REMARK   19  A    between atoms: CA_46  and  N_52 
REMARK   20  A    between atoms: CA_46  and  CB_48 
REMARK   21  A    between atoms: CA_46  and  C_47 
REMARK       I    between atoms: C_47  and  N_68 
REMARK   22  A    between atoms: CB_48  and  OG1_54 
REMARK   23  A    between atoms: CA_55  and  CB_57 
REMARK   24  A    between atoms: CA_55  and  N_68 
REMARK   25  A    between atoms: CA_55  and  C_56 
REMARK       I    between atoms: C_56  and  N_77 
REMARK   26  A    between atoms: CB_57  and  CG_58 
REMARK   27  A    between atoms: CA_71  and  N_77 
REMARK   28  A    between atoms: CA_71  and  CB_73 
REMARK   29  A    between atoms: CA_71  and  C_72 
ROOT
ATOM      1  CA  GLU B   4       6.672  91.716  61.365  1.00  0.00     0.177 C 
ENDROOT
BRANCH   1   2
ATOM      2  N   GLU B   4       7.790  91.733  62.306  1.00  0.00    -0.346 N 
ATOM      3  C   TRP B   3       7.646  92.202  63.543  1.00  0.00     0.241 C 
ATOM      4  O   TRP B   3       6.580  92.648  63.966  1.00  0.00    -0.271 OA
ATOM      5  H   GLU B   4       8.661  91.389  62.021  1.00  0.23     0.163 HD
BRANCH   3   6
ATOM      6  CA  TRP B   3       8.884  92.165  64.434  1.00  0.00     0.181 C 
BRANCH   6   7
ATOM      7  CB  TRP B   3       8.466  92.082  65.909  1.00  0.00     0.075 C 
BRANCH   7   8
ATOM      8  CG  TRP B   3       9.029  90.897  66.638  1.00  0.00    -0.028 A 
ATOM      9  CD1 TRP B   3       9.902  89.971  66.144  1.00  0.00     0.096 A 
ATOM     10  NE1 TRP B   3      10.185  89.028  67.104  1.00  0.00    -0.365 N 
ATOM     11  HE1 TRP B   3      10.787  88.263  66.990  1.00  0.23     0.165 HD
ATOM     12  CE2 TRP B   3       9.490  89.334  68.245  1.00  0.00     0.042 A 
ATOM     13  CZ2 TRP B   3       9.451  88.682  69.475  1.00  0.00     0.030 A 
ATOM     14  CD2 TRP B   3       8.750  90.504  67.987  1.00  0.00    -0.002 A 
ATOM     15  CH2 TRP B   3       8.657  89.219  70.451  1.00  0.00     0.002 A 
ATOM     16  CZ3 TRP B   3       7.909  90.380  70.225  1.00  0.00     0.001 A 
ATOM     17  CE3 TRP B   3       7.946  91.028  69.005  1.00  0.00     0.014 A 
ENDBRANCH   7   8
ENDBRANCH   6   7
BRANCH   6  18
ATOM     18  N   TRP B   3       9.738  93.326  64.196  1.00  0.00    -0.346 N 
ATOM     19  C   ALA B   2      11.019  93.196  63.823  1.00  0.00     0.240 C 
ATOM     20  O   ALA B   2      11.543  92.100  63.644  1.00  0.00    -0.271 OA
ATOM     21  H   TRP B   3       9.365  94.226  64.314  1.00  0.23     0.163 HD
BRANCH  19  22
ATOM     22  CA  ALA B   2      11.774  94.485  63.592  1.00  0.00     0.172 C 
ATOM     23  CB  ALA B   2      10.997  95.481  62.715  1.00  0.00     0.042 C 
BRANCH  22  24
ATOM     24  N   ALA B   2      13.056  94.229  62.941  1.00  0.00    -0.346 N 
ATOM     25  C   LYS B   1      14.120  95.005  63.165  1.00  0.00     0.254 C 
ATOM     26  O   LYS B   1      14.063  96.005  63.889  1.00  0.00    -0.271 OA
ATOM     27  H   ALA B   2      13.138  93.469  62.323  1.00  0.00     0.163 HD
BRANCH  25  28
ATOM     28  CA  LYS B   1      15.391  94.621  62.444  1.00  0.00     0.350 C 
BRANCH  28  29
ATOM     29  CB  LYS B   1      15.624  93.087  62.510  1.00  0.00     0.048 C 
BRANCH  29  30
ATOM     30  CG  LYS B   1      15.679  92.535  63.957  1.00  0.00     0.004 C 
BRANCH  30  31
ATOM     31  CD  LYS B   1      14.764  91.337  64.224  1.00  0.00     0.027 C 
BRANCH  31  32
ATOM     32  CE  LYS B   1      14.060  91.529  65.574  1.00  0.00     0.229 C 
BRANCH  32  33
ATOM     33  NZ  LYS B   1      13.263  90.330  65.887  1.00  0.00    -0.079 N 
ATOM     34  HZ1 LYS B   1      13.876  89.529  66.085  1.00  0.00     0.274 HD
ATOM     35  HZ2 LYS B   1      12.694  90.468  66.728  1.00  0.00     0.274 HD
ATOM     36  HZ3 LYS B   1      12.679  90.159  65.081  1.00  0.00     0.274 HD
ENDBRANCH  32  33
ENDBRANCH  31  32
ENDBRANCH  30  31
ENDBRANCH  29  30
ENDBRANCH  28  29
BRANCH  28  37
ATOM     37  N   LYS B   1      16.544  95.313  63.011  1.00  0.00     0.312 N 
ATOM     38  H   LYS B   1      17.010  94.691  63.743  1.00  0.00     0.359 HD
ENDBRANCH  28  37
ENDBRANCH  25  28
ENDBRANCH  22  24
ENDBRANCH  19  22
ENDBRANCH   6  18
ENDBRANCH   3   6
ENDBRANCH   1   2
BRANCH   1  39
ATOM     39  CB  GLU B   4       6.872  92.771  60.276  1.00  0.00     0.045 C 
BRANCH  39  40
ATOM     40  CG  GLU B   4       6.045  94.028  60.493  1.00  0.00     0.116 C 
BRANCH  40  41
ATOM     41  CD  GLU B   4       4.555  93.747  60.549  1.00  0.00     0.172 C 
ATOM     42  OE2 GLU B   4       4.049  93.049  59.646  1.00  0.00    -0.648 OA
ATOM     43  OE1 GLU B   4       3.897  94.226  61.495  1.00  0.00    -0.648 OA
ENDBRANCH  40  41
ENDBRANCH  39  40
ENDBRANCH   1  39
BRANCH   1  44
ATOM     44  C   GLU B   4       6.519  90.339  60.727  1.00  0.00     0.241 C 
ATOM     45  O   GLU B   4       7.122  89.365  61.178  1.00  0.00    -0.271 OA
ATOM     46  N   THR B   5       5.713  90.268  59.672  1.00  7.70    -0.344 N 
ATOM     47  H   THR B   5       5.264  91.083  59.361  1.00  0.23     0.163 HD
BRANCH  46  48
ATOM     48  CA  THR B   5       5.478  89.015  58.961  1.00  7.88     0.205 C 
BRANCH  48  49
ATOM     49  CB  THR B   5       6.774  88.207  58.869  1.00  4.05     0.146 C 
ATOM     50  CG2 THR B   5       6.570  86.810  58.323  1.00  3.72     0.042 C 
BRANCH  49  51
ATOM     51  OG1 THR B   5       7.713  88.860  58.034  1.00  7.31    -0.393 OA
ATOM     52  HG1 THR B   5       7.641  88.516  57.141  1.00  0.23     0.210 HD
ENDBRANCH  49  51
ENDBRANCH  48  49
BRANCH  48  53
ATOM     53  C   THR B   5       4.402  88.193  59.663  1.00  7.05     0.243 C 
ATOM     54  O   THR B   5       3.433  87.761  59.039  1.00  6.06    -0.271 OA
ATOM     55  N   TRP B   6       4.579  87.978  60.962  1.00  0.00    -0.346 N 
ATOM     56  H   TRP B   6       5.372  88.347  61.404  1.00  0.23     0.163 HD
BRANCH  55  57
ATOM     57  CA  TRP B   6       3.624  87.204  61.745  1.00  0.00     0.181 C 
BRANCH  57  58
ATOM     58  CB  TRP B   6       4.069  85.743  61.827  1.00  0.00     0.075 C 
BRANCH  58  59
ATOM     59  CG  TRP B   6       2.925  84.779  61.754  1.00  0.00    -0.028 A 
ATOM     60  CD2 TRP B   6       2.828  83.512  62.416  1.00  0.00    -0.002 A 
ATOM     61  CE2 TRP B   6       1.583  82.955  62.069  1.00  0.00     0.042 A 
ATOM     62  CE3 TRP B   6       3.674  82.796  63.267  1.00  0.00     0.014 A 
ATOM     63  CZ2 TRP B   6       1.165  81.715  62.545  1.00  0.00     0.030 A 
ATOM     64  NE1 TRP B   6       0.952  83.841  61.235  1.00  0.00    -0.365 N 
ATOM     65  CH2 TRP B   6       2.013  81.035  63.376  1.00  0.00     0.002 A 
ATOM     66  CZ3 TRP B   6       3.257  81.565  63.739  1.00  0.00     0.001 A 
ATOM     67  HE1 TRP B   6       0.066  83.717  60.836  1.00  0.23     0.165 HD
ATOM     68  CD1 TRP B   6       1.765  84.934  61.051  1.00  0.00     0.096 A 
ENDBRANCH  58  59
ENDBRANCH  57  58
BRANCH  57  69
ATOM     69  C   TRP B   6       3.470  87.786  63.146  1.00  0.00     0.241 C 
ATOM     70  N   VAL B   7       4.386  88.678  63.513  1.00  6.11    -0.344 N 
ATOM     71  H   VAL B   7       5.098  88.916  62.884  1.00  0.23     0.163 HD
ATOM     72  O   TRP B   6       2.545  87.432  63.878  1.00  0.00    -0.271 OA
BRANCH  70  73
ATOM     73  CA  VAL B   7       4.357  89.309  64.826  1.00  5.65     0.189 C 
BRANCH  73  74
ATOM     74  CB  VAL B   7       5.774  89.416  65.424  1.00  1.15     0.010 C 
ATOM     75  CG1 VAL B   7       5.820  88.780  66.806  1.00  4.96     0.012 C 
ATOM     76  CG2 VAL B   7       6.797  88.772  64.500  1.00  9.83     0.012 C 
ENDBRANCH  73  74
BRANCH  73  77
ATOM     77  C   VAL B   7       3.740  90.702  64.755  1.00  4.44     0.197 C 
ATOM     78  O   VAL B   7       3.709  91.277  63.647  1.00  0.00    -0.646 OA
ATOM     79  OXT VAL B   7       3.294  91.206  65.806  1.00  0.00    -0.646 OA
ENDBRANCH  73  77
ENDBRANCH  70  73
ENDBRANCH  57  69
ENDBRANCH  55  57
ENDBRANCH  48  53
ENDBRANCH  46  48
ENDBRANCH   1  44
TORSDOF 29
ENDMDL
MODEL 3
REMARK VINA RESULT:      -7.6      2.084      3.588
REMARK  29 active torsions:
REMARK  status: ('A' for Active; 'I' for Inactive)
REMARK    1  A    between atoms: N_1  and  CA_2 
REMARK    2  A    between atoms: CA_2  and  CB_5 
REMARK    3  A    between atoms: CA_2  and  C_3 
REMARK       I    between atoms: C_3  and  N_14 
REMARK    4  A    between atoms: CB_5  and  CG_6 
REMARK    5  A    between atoms: CG_6  and  CD_7 
REMARK    6  A    between atoms: CD_7  and  CE_8 
REMARK    7  A    between atoms: CE_8  and  NZ_9 
REMARK    8  A    between atoms: N_14  and  CA_15 
REMARK    9  A    between atoms: CA_15  and  C_16 
REMARK       I    between atoms: C_16  and  N_33 
REMARK   10  A    between atoms: CA_20  and  CB_22 
REMARK   11  A    between atoms: CA_20  and  C_21 
REMARK   12  A    between atoms: CA_20  and  N_33 
REMARK       I    between atoms: C_21  and  N_42 
REMARK   13  A    between atoms: CB_22  and  CG_23 
REMARK   14  A    between atoms: CA_36  and  N_42 
REMARK   15  A    between atoms: CA_36  and  CB_38 
REMARK   16  A    between atoms: CA_36  and  C_37 
REMARK       I    between atoms: C_37  and  N_52 
REMARK   17  A    between atoms: CB_38  and  CG_39 
REMARK   18  A    between atoms: CG_39  and  CD_40 
REMARK   19  A    between atoms: CA_46  and  N_52 
REMARK   20  A    between atoms: CA_46  and  CB_48 
REMARK   21  A    between atoms: CA_46  and  C_47 
REMARK       I    between atoms: C_47  and  N_68 
REMARK   22  A    between atoms: CB_48  and  OG1_54 
REMARK   23  A    between atoms: CA_55  and  CB_57 
REMARK   24  A    between atoms: CA_55  and  N_68 
REMARK   25  A    between atoms: CA_55  and  C_56 
REMARK       I    between atoms: C_56  and  N_77 
REMARK   26  A    between atoms: CB_57  and  CG_58 
REMARK   27  A    between atoms: CA_71  and  N_77 
REMARK   28  A    between atoms: CA_71  and  CB_73 
REMARK   29  A    between atoms: CA_71  and  C_72 
ROOT
ATOM      1  CA  GLU B   4       5.987  91.684  63.488  1.00  0.00     0.177 C 
ENDROOT
BRANCH   1   2
ATOM      2  N   GLU B   4       7.069  91.354  64.413  1.00  0.00    -0.346 N 
ATOM      3  C   TRP B   3       8.344  91.435  64.043  1.00  0.00     0.241 C 
ATOM      4  O   TRP B   3       8.688  91.786  62.915  1.00  0.00    -0.271 OA
ATOM      5  H   GLU B   4       6.849  91.070  65.325  1.00  0.23     0.163 HD
BRANCH   3   6
ATOM      6  CA  TRP B   3       9.384  91.067  65.097  1.00  0.00     0.181 C 
BRANCH   6   7
ATOM      7  CB  TRP B   3       8.862  91.423  66.496  1.00  0.00     0.075 C 
BRANCH   7   8
ATOM      8  CG  TRP B   3       9.037  90.330  67.510  1.00  0.00    -0.028 A 
ATOM      9  CD1 TRP B   3       9.297  90.483  68.842  1.00  0.00     0.096 A 
ATOM     10  NE1 TRP B   3       9.399  89.252  69.447  1.00  0.00    -0.365 N 
ATOM     11  HE1 TRP B   3       9.579  89.100  70.399  1.00  0.23     0.165 HD
ATOM     12  CE2 TRP B   3       9.208  88.276  68.504  1.00  0.00     0.042 A 
ATOM     13  CZ2 TRP B   3       9.217  86.889  68.633  1.00  0.00     0.030 A 
ATOM     14  CD2 TRP B   3       8.979  88.918  67.272  1.00  0.00    -0.002 A 
ATOM     15  CH2 TRP B   3       8.993  86.148  67.506  1.00  0.00     0.002 A 
ATOM     16  CZ3 TRP B   3       8.764  86.757  66.266  1.00  0.00     0.001 A 
ATOM     17  CE3 TRP B   3       8.754  88.133  66.137  1.00  0.00     0.014 A 
ENDBRANCH   7   8
ENDBRANCH   6   7
BRANCH   6  18
ATOM     18  N   TRP B   3      10.659  91.728  64.829  1.00  0.00    -0.346 N 
ATOM     19  C   ALA B   2      11.783  91.031  64.606  1.00  0.00     0.240 C 
ATOM     20  O   ALA B   2      11.803  89.803  64.597  1.00  0.00    -0.271 OA
ATOM     21  H   TRP B   3      10.696  92.708  64.813  1.00  0.23     0.163 HD
BRANCH  19  22
ATOM     22  CA  ALA B   2      13.022  91.848  64.322  1.00  0.00     0.172 C 
ATOM     23  CB  ALA B   2      14.031  91.824  65.482  1.00  0.00     0.042 C 
BRANCH  22  24
ATOM     24  N   ALA B   2      12.678  93.244  64.063  1.00  0.00    -0.346 N 
ATOM     25  C   LYS B   1      13.268  93.939  63.086  1.00  0.00     0.254 C 
ATOM     26  O   LYS B   1      14.166  93.458  62.388  1.00  0.00    -0.271 OA
ATOM     27  H   ALA B   2      11.998  93.682  64.622  1.00  0.00     0.163 HD
BRANCH  25  28
ATOM     28  CA  LYS B   1      12.808  95.368  62.912  1.00  0.00     0.350 C 
BRANCH  28  29
ATOM     29  CB  LYS B   1      12.323  95.622  61.459  1.00  0.00     0.048 C 
BRANCH  29  30
ATOM     30  CG  LYS B   1      12.766  96.994  60.893  1.00  0.00     0.004 C 
BRANCH  30  31
ATOM     31  CD  LYS B   1      12.616  97.144  59.376  1.00  0.00     0.027 C 
BRANCH  31  32
ATOM     32  CE  LYS B   1      11.511  98.165  59.075  1.00  0.00     0.229 C 
BRANCH  32  33
ATOM     33  NZ  LYS B   1      10.213  97.474  59.000  1.00  0.00    -0.079 N 
ATOM     34  HZ1 LYS B   1       9.477  98.036  59.444  1.00  0.00     0.274 HD
ATOM     35  HZ2 LYS B   1       9.919  97.337  58.027  1.00  0.00     0.274 HD
ATOM     36  HZ3 LYS B   1      10.335  96.587  59.467  1.00  0.00     0.274 HD
ENDBRANCH  32  33
ENDBRANCH  31  32
ENDBRANCH  30  31
ENDBRANCH  29  30
ENDBRANCH  28  29
BRANCH  28  37
ATOM     37  N   LYS B   1      13.879  96.305  63.239  1.00  0.00     0.312 N 
ATOM     38  H   LYS B   1      14.672  95.785  63.728  1.00  0.00     0.359 HD
ENDBRANCH  28  37
ENDBRANCH  25  28
ENDBRANCH  22  24
ENDBRANCH  19  22
ENDBRANCH   6  18
ENDBRANCH   3   6
ENDBRANCH   1   2
BRANCH   1  39
ATOM     39  CB  GLU B   4       6.157  93.105  62.948  1.00  0.00     0.045 C 
BRANCH  39  40
ATOM     40  CG  GLU B   4       4.873  93.917  62.967  1.00  0.00     0.116 C 
BRANCH  40  41
ATOM     41  CD  GLU B   4       4.404  94.306  61.578  1.00  0.00     0.172 C 
ATOM     42  OE2 GLU B   4       3.546  95.206  61.471  1.00  0.00    -0.648 OA
ATOM     43  OE1 GLU B   4       4.896  93.709  60.597  1.00  0.00    -0.648 OA
ENDBRANCH  40  41
ENDBRANCH  39  40
ENDBRANCH   1  39
BRANCH   1  44
ATOM     44  C   GLU B   4       5.942  90.694  62.328  1.00  0.00     0.241 C 
ATOM     45  O   GLU B   4       5.545  89.541  62.498  1.00  0.00    -0.271 OA
ATOM     46  N   THR B   5       6.356  91.153  61.150  1.00  7.70    -0.344 N 
ATOM     47  H   THR B   5       6.662  92.082  61.083  1.00  0.23     0.163 HD
BRANCH  46  48
ATOM     48  CA  THR B   5       6.371  90.313  59.956  1.00  7.88     0.205 C 
BRANCH  48  49
ATOM     49  CB  THR B   5       7.126  89.012  60.232  1.00  4.05     0.146 C 
ATOM     50  CG2 THR B   5       7.769  88.420  58.996  1.00  3.72     0.042 C 
BRANCH  49  51
ATOM     51  OG1 THR B   5       8.148  89.219  61.190  1.00  7.31    -0.393 OA
ATOM     52  HG1 THR B   5       7.800  89.729  61.924  1.00  0.23     0.210 HD
ENDBRANCH  49  51
ENDBRANCH  48  49
BRANCH  48  53
ATOM     53  C   THR B   5       4.949  90.003  59.500  1.00  7.05     0.243 C 
ATOM     54  O   THR B   5       4.374  90.731  58.691  1.00  6.06    -0.271 OA
ATOM     55  N   TRP B   6       4.387  88.917  60.021  1.00  0.00    -0.346 N 
ATOM     56  H   TRP B   6       4.896  88.376  60.660  1.00  0.23     0.163 HD
BRANCH  55  57
ATOM     57  CA  TRP B   6       3.035  88.511  59.663  1.00  0.00     0.181 C 
BRANCH  57  58
ATOM     58  CB  TRP B   6       3.009  87.027  59.295  1.00  0.00     0.075 C 
BRANCH  58  59
ATOM     59  CG  TRP B   6       4.222  86.286  59.770  1.00  0.00    -0.028 A 
ATOM     60  CD2 TRP B   6       5.293  85.787  58.959  1.00  0.00    -0.002 A 
ATOM     61  CE2 TRP B   6       6.216  85.169  59.823  1.00  0.00     0.042 A 
ATOM     62  CE3 TRP B   6       5.559  85.802  57.587  1.00  0.00     0.014 A 
ATOM     63  CZ2 TRP B   6       7.385  84.573  59.358  1.00  0.00     0.030 A 
ATOM     64  NE1 TRP B   6       5.730  85.287  61.099  1.00  0.00    -0.365 N 
ATOM     65  CH2 TRP B   6       7.621  84.601  58.011  1.00  0.00     0.002 A 
ATOM     66  CZ3 TRP B   6       6.721  85.209  57.128  1.00  0.00     0.001 A 
ATOM     67  HE1 TRP B   6       6.165  84.947  61.909  1.00  0.23     0.165 HD
ATOM     68  CD1 TRP B   6       4.532  85.959  61.058  1.00  0.00     0.096 A 
ENDBRANCH  58  59
ENDBRANCH  57  58
BRANCH  57  69
ATOM     69  C   TRP B   6       2.062  88.786  60.806  1.00  0.00     0.241 C 
ATOM     70  N   VAL B   7       2.523  88.559  62.032  1.00  6.11    -0.344 N 
ATOM     71  H   VAL B   7       3.441  88.236  62.145  1.00  0.23     0.163 HD
ATOM     72  O   TRP B   6       0.921  89.190  60.580  1.00  0.00    -0.271 OA
BRANCH  70  73
ATOM     73  CA  VAL B   7       1.697  88.777  63.213  1.00  5.65     0.189 C 
BRANCH  73  74
ATOM     74  CB  VAL B   7       1.276  87.440  63.854  1.00  1.15     0.010 C 
ATOM     75  CG1 VAL B   7      -0.062  86.978  63.295  1.00  4.96     0.012 C 
ATOM     76  CG2 VAL B   7       2.346  86.380  63.638  1.00  9.83     0.012 C 
ENDBRANCH  73  74
BRANCH  73  77
ATOM     77  C   VAL B   7       2.432  89.619  64.252  1.00  4.44     0.197 C 
ATOM     78  O   VAL B   7       2.936  90.701  63.884  1.00  0.00    -0.646 OA
ATOM     79  OXT VAL B   7       2.500  89.189  65.421  1.00  0.00    -0.646 OA
ENDBRANCH  73  77
ENDBRANCH  70  73
ENDBRANCH  57  69
ENDBRANCH  55  57
ENDBRANCH  48  53
ENDBRANCH  46  48
ENDBRANCH   1  44
TORSDOF 29
ENDMDL
MODEL 4
REMARK VINA RESULT:      -7.6      2.123      3.573
REMARK  29 active torsions:
REMARK  status: ('A' for Active; 'I' for Inactive)
REMARK    1  A    between atoms: N_1  and  CA_2 
REMARK    2  A    between atoms: CA_2  and  CB_5 
REMARK    3  A    between atoms: CA_2  and  C_3 
REMARK       I    between atoms: C_3  and  N_14 
REMARK    4  A    between atoms: CB_5  and  CG_6 
REMARK    5  A    between atoms: CG_6  and  CD_7 
REMARK    6  A    between atoms: CD_7  and  CE_8 
REMARK    7  A    between atoms: CE_8  and  NZ_9 
REMARK    8  A    between atoms: N_14  and  CA_15 
REMARK    9  A    between atoms: CA_15  and  C_16 
REMARK       I    between atoms: C_16  and  N_33 
REMARK   10  A    between atoms: CA_20  and  CB_22 
REMARK   11  A    between atoms: CA_20  and  C_21 
REMARK   12  A    between atoms: CA_20  and  N_33 
REMARK       I    between atoms: C_21  and  N_42 
REMARK   13  A    between atoms: CB_22  and  CG_23 
REMARK   14  A    between atoms: CA_36  and  N_42 
REMARK   15  A    between atoms: CA_36  and  CB_38 
REMARK   16  A    between atoms: CA_36  and  C_37 
REMARK       I    between atoms: C_37  and  N_52 
REMARK   17  A    between atoms: CB_38  and  CG_39 
REMARK   18  A    between atoms: CG_39  and  CD_40 
REMARK   19  A    between atoms: CA_46  and  N_52 
REMARK   20  A    between atoms: CA_46  and  CB_48 
REMARK   21  A    between atoms: CA_46  and  C_47 
REMARK       I    between atoms: C_47  and  N_68 
REMARK   22  A    between atoms: CB_48  and  OG1_54 
REMARK   23  A    between atoms: CA_55  and  CB_57 
REMARK   24  A    between atoms: CA_55  and  N_68 
REMARK   25  A    between atoms: CA_55  and  C_56 
REMARK       I    between atoms: C_56  and  N_77 
REMARK   26  A    between atoms: CB_57  and  CG_58 
REMARK   27  A    between atoms: CA_71  and  N_77 
REMARK   28  A    between atoms: CA_71  and  CB_73 
REMARK   29  A    between atoms: CA_71  and  C_72 
ROOT
ATOM      1  CA  GLU B   4       7.933  91.728  63.884  1.00  0.00     0.177 C 
ENDROOT
BRANCH   1   2
ATOM      2  N   GLU B   4       8.994  90.937  64.503  1.00  0.00    -0.346 N 
ATOM      3  C   TRP B   3       9.101  90.837  65.825  1.00  0.00     0.241 C 
ATOM      4  O   TRP B   3       8.326  91.397  66.599  1.00  0.00    -0.271 OA
ATOM      5  H   GLU B   4       9.639  90.469  63.931  1.00  0.23     0.163 HD
BRANCH   3   6
ATOM      6  CA  TRP B   3      10.248  89.981  66.354  1.00  0.00     0.181 C 
BRANCH   6   7
ATOM      7  CB  TRP B   3       9.947  89.531  67.791  1.00  0.00     0.075 C 
BRANCH   7   8
ATOM      8  CG  TRP B   3       9.426  88.128  67.896  1.00  0.00    -0.028 A 
ATOM      9  CD1 TRP B   3       8.700  87.451  66.958  1.00  0.00     0.096 A 
ATOM     10  NE1 TRP B   3       8.396  86.190  67.415  1.00  0.00    -0.365 N 
ATOM     11  HE1 TRP B   3       7.885  85.515  66.921  1.00  0.23     0.165 HD
ATOM     12  CE2 TRP B   3       8.925  86.033  68.669  1.00  0.00     0.042 A 
ATOM     13  CZ2 TRP B   3       8.882  84.939  69.531  1.00  0.00     0.030 A 
ATOM     14  CD2 TRP B   3       9.579  87.234  69.005  1.00  0.00    -0.002 A 
ATOM     15  CH2 TRP B   3       9.506  85.063  70.742  1.00  0.00     0.002 A 
ATOM     16  CZ3 TRP B   3      10.163  86.244  71.105  1.00  0.00     0.001 A 
ATOM     17  CE3 TRP B   3      10.207  87.330  70.252  1.00  0.00     0.014 A 
ENDBRANCH   7   8
ENDBRANCH   6   7
BRANCH   6  18
ATOM     18  N   TRP B   3      11.517  90.700  66.284  1.00  0.00    -0.346 N 
ATOM     19  C   ALA B   2      12.244  90.744  65.158  1.00  0.00     0.240 C 
ATOM     20  O   ALA B   2      11.880  90.198  64.120  1.00  0.00    -0.271 OA
ATOM     21  H   TRP B   3      11.848  91.164  67.083  1.00  0.23     0.163 HD
BRANCH  19  22
ATOM     22  CA  ALA B   2      13.523  91.544  65.229  1.00  0.00     0.172 C 
ATOM     23  CB  ALA B   2      14.119  91.592  66.646  1.00  0.00     0.042 C 
BRANCH  22  24
ATOM     24  N   ALA B   2      13.302  92.921  64.795  1.00  0.00    -0.346 N 
ATOM     25  C   LYS B   1      13.917  93.422  63.719  1.00  0.00     0.254 C 
ATOM     26  O   LYS B   1      14.739  92.768  63.069  1.00  0.00    -0.271 OA
ATOM     27  H   ALA B   2      12.688  93.493  65.307  1.00  0.00     0.163 HD
BRANCH  25  28
ATOM     28  CA  LYS B   1      13.586  94.854  63.367  1.00  0.00     0.350 C 
BRANCH  28  29
ATOM     29  CB  LYS B   1      13.262  94.993  61.855  1.00  0.00     0.048 C 
BRANCH  29  30
ATOM     30  CG  LYS B   1      12.402  96.237  61.521  1.00  0.00     0.004 C 
BRANCH  30  31
ATOM     31  CD  LYS B   1      12.639  96.830  60.130  1.00  0.00     0.027 C 
BRANCH  31  32
ATOM     32  CE  LYS B   1      11.888  98.163  60.013  1.00  0.00     0.229 C 
BRANCH  32  33
ATOM     33  NZ  LYS B   1      12.673  99.098  59.189  1.00  0.00    -0.079 N 
ATOM     34  HZ1 LYS B   1      13.495  99.435  59.705  1.00  0.00     0.274 HD
ATOM     35  HZ2 LYS B   1      13.034  98.640  58.346  1.00  0.00     0.274 HD
ATOM     36  HZ3 LYS B   1      12.050  99.856  58.947  1.00  0.00     0.274 HD
ENDBRANCH  32  33
ENDBRANCH  31  32
ENDBRANCH  30  31
ENDBRANCH  29  30
ENDBRANCH  28  29
BRANCH  28  37
ATOM     37  N   LYS B   1      14.690  95.745  63.712  1.00  0.00     0.312 N 
ATOM     38  H   LYS B   1      14.627  96.008  64.745  1.00  0.00     0.359 HD
ENDBRANCH  28  37
ENDBRANCH  25  28
ENDBRANCH  22  24
ENDBRANCH  19  22
ENDBRANCH   6  18
ENDBRANCH   3   6
ENDBRANCH   1   2
BRANCH   1  39
ATOM     39  CB  GLU B   4       8.516  92.966  63.200  1.00  0.00     0.045 C 
BRANCH  39  40
ATOM     40  CG  GLU B   4       9.927  93.300  63.656  1.00  0.00     0.116 C 
BRANCH  40  41
ATOM     41  CD  GLU B   4       9.950  94.202  64.876  1.00  0.00     0.172 C 
ATOM     42  OE2 GLU B   4      11.018  94.781  65.165  1.00  0.00    -0.648 OA
ATOM     43  OE1 GLU B   4       8.901  94.327  65.541  1.00  0.00    -0.648 OA
ENDBRANCH  40  41
ENDBRANCH  39  40
ENDBRANCH   1  39
BRANCH   1  44
ATOM     44  C   GLU B   4       7.157  90.896  62.867  1.00  0.00     0.241 C 
ATOM     45  O   GLU B   4       6.678  89.806  63.179  1.00  0.00    -0.271 OA
ATOM     46  N   THR B   5       7.042  91.417  61.649  1.00  7.70    -0.344 N 
ATOM     47  H   THR B   5       7.449  92.290  61.465  1.00  0.23     0.163 HD
BRANCH  46  48
ATOM     48  CA  THR B   5       6.329  90.727  60.578  1.00  7.88     0.205 C 
BRANCH  48  49
ATOM     49  CB  THR B   5       6.921  89.334  60.359  1.00  4.05     0.146 C 
ATOM     50  CG2 THR B   5       7.112  88.989  58.898  1.00  3.72     0.042 C 
BRANCH  49  51
ATOM     51  OG1 THR B   5       8.181  89.219  60.995  1.00  7.31    -0.393 OA
ATOM     52  HG1 THR B   5       8.508  88.323  60.898  1.00  0.23     0.210 HD
ENDBRANCH  49  51
ENDBRANCH  48  49
BRANCH  48  53
ATOM     53  C   THR B   5       4.843  90.616  60.906  1.00  7.05     0.243 C 
ATOM     54  O   THR B   5       4.043  91.455  60.494  1.00  6.06    -0.271 OA
ATOM     55  N   TRP B   6       4.481  89.574  61.647  1.00  0.00    -0.346 N 
ATOM     56  H   TRP B   6       5.165  88.938  61.945  1.00  0.23     0.163 HD
BRANCH  55  57
ATOM     57  CA  TRP B   6       3.092  89.353  62.026  1.00  0.00     0.181 C 
BRANCH  57  58
ATOM     58  CB  TRP B   6       2.717  87.884  61.825  1.00  0.00     0.075 C 
BRANCH  58  59
ATOM     59  CG  TRP B   6       3.178  87.339  60.508  1.00  0.00    -0.028 A 
ATOM     60  CD2 TRP B   6       4.403  86.640  60.252  1.00  0.00    -0.002 A 
ATOM     61  CE2 TRP B   6       4.414  86.309  58.883  1.00  0.00     0.042 A 
ATOM     62  CE3 TRP B   6       5.489  86.264  61.046  1.00  0.00     0.014 A 
ATOM     63  CZ2 TRP B   6       5.471  85.619  58.295  1.00  0.00     0.030 A 
ATOM     64  NE1 TRP B   6       3.251  86.783  58.334  1.00  0.00    -0.365 N 
ATOM     65  CH2 TRP B   6       6.522  85.263  59.094  1.00  0.00     0.002 A 
ATOM     66  CZ3 TRP B   6       6.538  85.579  60.458  1.00  0.00     0.001 A 
ATOM     67  HE1 TRP B   6       2.988  86.697  57.394  1.00  0.23     0.165 HD
ATOM     68  CD1 TRP B   6       2.515  87.400  59.317  1.00  0.00     0.096 A 
ENDBRANCH  58  59
ENDBRANCH  57  58
BRANCH  57  69
ATOM     69  C   TRP B   6       2.849  89.764  63.475  1.00  0.00     0.241 C 
ATOM     70  N   VAL B   7       3.920  90.154  64.159  1.00  6.11    -0.344 N 
ATOM     71  H   VAL B   7       4.793  90.161  63.715  1.00  0.23     0.163 HD
ATOM     72  O   TRP B   6       1.718  89.725  63.961  1.00  0.00    -0.271 OA
BRANCH  70  73
ATOM     73  CA  VAL B   7       3.829  90.569  65.553  1.00  5.65     0.189 C 
BRANCH  73  74
ATOM     74  CB  VAL B   7       5.124  90.235  66.320  1.00  1.15     0.010 C 
ATOM     75  CG1 VAL B   7       4.958  90.533  67.803  1.00  4.96     0.012 C 
ATOM     76  CG2 VAL B   7       5.517  88.781  66.103  1.00  9.83     0.012 C 
ENDBRANCH  73  74
BRANCH  73  77
ATOM     77  C   VAL B   7       3.556  92.067  65.665  1.00  4.44     0.197 C 
ATOM     78  O   VAL B   7       4.397  92.856  65.187  1.00  0.00    -0.646 OA
ATOM     79  OXT VAL B   7       2.506  92.436  66.229  1.00  0.00    -0.646 OA
ENDBRANCH  73  77
ENDBRANCH  70  73
ENDBRANCH  57  69
ENDBRANCH  55  57
ENDBRANCH  48  53
ENDBRANCH  46  48
ENDBRANCH   1  44
TORSDOF 29
ENDMDL
MODEL 5
REMARK VINA RESULT:      -7.2      1.829      5.398
REMARK  29 active torsions:
REMARK  status: ('A' for Active; 'I' for Inactive)
REMARK    1  A    between atoms: N_1  and  CA_2 
REMARK    2  A    between atoms: CA_2  and  CB_5 
REMARK    3  A    between atoms: CA_2  and  C_3 
REMARK       I    between atoms: C_3  and  N_14 
REMARK    4  A    between atoms: CB_5  and  CG_6 
REMARK    5  A    between atoms: CG_6  and  CD_7 
REMARK    6  A    between atoms: CD_7  and  CE_8 
REMARK    7  A    between atoms: CE_8  and  NZ_9 
REMARK    8  A    between atoms: N_14  and  CA_15 
REMARK    9  A    between atoms: CA_15  and  C_16 
REMARK       I    between atoms: C_16  and  N_33 
REMARK   10  A    between atoms: CA_20  and  CB_22 
REMARK   11  A    between atoms: CA_20  and  C_21 
REMARK   12  A    between atoms: CA_20  and  N_33 
REMARK       I    between atoms: C_21  and  N_42 
REMARK   13  A    between atoms: CB_22  and  CG_23 
REMARK   14  A    between atoms: CA_36  and  N_42 
REMARK   15  A    between atoms: CA_36  and  CB_38 
REMARK   16  A    between atoms: CA_36  and  C_37 
REMARK       I    between atoms: C_37  and  N_52 
REMARK   17  A    between atoms: CB_38  and  CG_39 
REMARK   18  A    between atoms: CG_39  and  CD_40 
REMARK   19  A    between atoms: CA_46  and  N_52 
REMARK   20  A    between atoms: CA_46  and  CB_48 
REMARK   21  A    between atoms: CA_46  and  C_47 
REMARK       I    between atoms: C_47  and  N_68 
REMARK   22  A    between atoms: CB_48  and  OG1_54 
REMARK   23  A    between atoms: CA_55  and  CB_57 
REMARK   24  A    between atoms: CA_55  and  N_68 
REMARK   25  A    between atoms: CA_55  and  C_56 
REMARK       I    between atoms: C_56  and  N_77 
REMARK   26  A    between atoms: CB_57  and  CG_58 
REMARK   27  A    between atoms: CA_71  and  N_77 
REMARK   28  A    between atoms: CA_71  and  CB_73 
REMARK   29  A    between atoms: CA_71  and  C_72 
ROOT
ATOM      1  CA  GLU B   4       5.941  91.796  63.413  1.00  0.00     0.177 C 
ENDROOT
BRANCH   1   2
ATOM      2  N   GLU B   4       7.303  92.299  63.582  1.00  0.00    -0.346 N 
ATOM      3  C   TRP B   3       7.727  92.768  64.752  1.00  0.00     0.241 C 
ATOM      4  O   TRP B   3       7.011  92.809  65.751  1.00  0.00    -0.271 OA
ATOM      5  H   GLU B   4       7.916  92.288  62.817  1.00  0.23     0.163 HD
BRANCH   3   6
ATOM      6  CA  TRP B   3       9.169  93.263  64.806  1.00  0.00     0.181 C 
BRANCH   6   7
ATOM      7  CB  TRP B   3       9.831  93.104  63.430  1.00  0.00     0.075 C 
BRANCH   7   8
ATOM      8  CG  TRP B   3      11.078  93.919  63.253  1.00  0.00    -0.028 A 
ATOM      9  CD1 TRP B   3      11.151  95.245  62.933  1.00  0.00     0.096 A 
ATOM     10  NE1 TRP B   3      12.466  95.639  62.851  1.00  0.00    -0.365 N 
ATOM     11  HE1 TRP B   3      12.776  96.544  62.637  1.00  0.23     0.165 HD
ATOM     12  CE2 TRP B   3      13.270  94.562  63.117  1.00  0.00     0.042 A 
ATOM     13  CZ2 TRP B   3      14.659  94.466  63.154  1.00  0.00     0.030 A 
ATOM     14  CD2 TRP B   3      12.430  93.461  63.373  1.00  0.00    -0.002 A 
ATOM     15  CH2 TRP B   3      15.201  93.245  63.452  1.00  0.00     0.002 A 
ATOM     16  CZ3 TRP B   3      14.393  92.132  63.710  1.00  0.00     0.001 A 
ATOM     17  CE3 TRP B   3      13.014  92.226  63.674  1.00  0.00     0.014 A 
ENDBRANCH   7   8
ENDBRANCH   6   7
BRANCH   6  18
ATOM     18  N   TRP B   3       9.928  92.560  65.837  1.00  0.00    -0.346 N 
ATOM     19  C   ALA B   2      10.100  91.230  65.806  1.00  0.00     0.240 C 
ATOM     20  O   ALA B   2       9.644  90.531  64.905  1.00  0.00    -0.271 OA
ATOM     21  H   TRP B   3      10.323  93.073  66.574  1.00  0.23     0.163 HD
BRANCH  19  22
ATOM     22  CA  ALA B   2      10.926  90.644  66.927  1.00  0.00     0.172 C 
ATOM     23  CB  ALA B   2      12.435  90.676  66.634  1.00  0.00     0.042 C 
BRANCH  22  24
ATOM     24  N   ALA B   2      10.553  89.255  67.179  1.00  0.00    -0.346 N 
ATOM     25  C   LYS B   1       9.761  88.918  68.201  1.00  0.00     0.254 C 
ATOM     26  O   LYS B   1       9.347  89.751  69.013  1.00  0.00    -0.271 OA
ATOM     27  H   ALA B   2      10.893  88.551  66.583  1.00  0.00     0.163 HD
BRANCH  25  28
ATOM     28  CA  LYS B   1       9.437  87.448  68.338  1.00  0.00     0.350 C 
BRANCH  28  29
ATOM     29  CB  LYS B   1       7.976  87.246  68.824  1.00  0.00     0.048 C 
BRANCH  29  30
ATOM     30  CG  LYS B   1       6.927  87.381  67.692  1.00  0.00     0.004 C 
BRANCH  30  31
ATOM     31  CD  LYS B   1       6.031  88.619  67.788  1.00  0.00     0.027 C 
BRANCH  31  32
ATOM     32  CE  LYS B   1       6.344  89.563  66.620  1.00  0.00     0.229 C 
BRANCH  32  33
ATOM     33  NZ  LYS B   1       7.165  88.854  65.624  1.00  0.00    -0.079 N 
ATOM     34  HZ1 LYS B   1       6.589  88.201  65.078  1.00  0.00     0.274 HD
ATOM     35  HZ2 LYS B   1       7.577  89.505  64.947  1.00  0.00     0.274 HD
ATOM     36  HZ3 LYS B   1       7.885  88.370  66.141  1.00  0.00     0.274 HD
ENDBRANCH  32  33
ENDBRANCH  31  32
ENDBRANCH  30  31
ENDBRANCH  29  30
ENDBRANCH  28  29
BRANCH  28  37
ATOM     37  N   LYS B   1      10.353  86.796  69.269  1.00  0.00     0.312 N 
ATOM     38  H   LYS B   1      10.251  87.232  70.237  1.00  0.00     0.359 HD
ENDBRANCH  28  37
ENDBRANCH  25  28
ENDBRANCH  22  24
ENDBRANCH  19  22
ENDBRANCH   6  18
ENDBRANCH   3   6
ENDBRANCH   1   2
BRANCH   1  39
ATOM     39  CB  GLU B   4       4.974  92.948  63.138  1.00  0.00     0.045 C 
BRANCH  39  40
ATOM     40  CG  GLU B   4       5.552  94.019  62.227  1.00  0.00     0.116 C 
BRANCH  40  41
ATOM     41  CD  GLU B   4       4.871  94.067  60.873  1.00  0.00     0.172 C 
ATOM     42  OE2 GLU B   4       5.561  93.854  59.854  1.00  0.00    -0.648 OA
ATOM     43  OE1 GLU B   4       3.649  94.317  60.832  1.00  0.00    -0.648 OA
ENDBRANCH  40  41
ENDBRANCH  39  40
ENDBRANCH   1  39
BRANCH   1  44
ATOM     44  C   GLU B   4       5.873  90.784  62.273  1.00  0.00     0.241 C 
ATOM     45  O   GLU B   4       5.252  89.729  62.404  1.00  0.00    -0.271 OA
ATOM     46  N   THR B   5       6.520  91.112  61.159  1.00  7.70    -0.344 N 
ATOM     47  H   THR B   5       6.997  91.968  61.121  1.00  0.23     0.163 HD
BRANCH  46  48
ATOM     48  CA  THR B   5       6.541  90.236  59.991  1.00  7.88     0.205 C 
BRANCH  48  49
ATOM     49  CB  THR B   5       7.179  88.892  60.349  1.00  4.05     0.146 C 
ATOM     50  CG2 THR B   5       7.969  88.285  59.210  1.00  3.72     0.042 C 
BRANCH  49  51
ATOM     51  OG1 THR B   5       8.055  89.032  61.453  1.00  7.31    -0.393 OA
ATOM     52  HG1 THR B   5       8.699  88.321  61.442  1.00  0.23     0.210 HD
ENDBRANCH  49  51
ENDBRANCH  48  49
BRANCH  48  53
ATOM     53  C   THR B   5       5.129  90.016  59.459  1.00  7.05     0.243 C 
ATOM     54  O   THR B   5       4.596  90.848  58.725  1.00  6.06    -0.271 OA
ATOM     55  N   TRP B   6       4.529  88.890  59.829  1.00  0.00    -0.346 N 
ATOM     56  H   TRP B   6       5.005  88.264  60.415  1.00  0.23     0.163 HD
BRANCH  55  57
ATOM     57  CA  TRP B   6       3.181  88.561  59.385  1.00  0.00     0.181 C 
BRANCH  57  58
ATOM     58  CB  TRP B   6       3.073  87.065  59.086  1.00  0.00     0.075 C 
BRANCH  58  59
ATOM     59  CG  TRP B   6       4.206  86.272  59.663  1.00  0.00    -0.028 A 
ATOM     60  CD2 TRP B   6       5.333  85.747  58.952  1.00  0.00    -0.002 A 
ATOM     61  CE2 TRP B   6       6.143  85.079  59.890  1.00  0.00     0.042 A 
ATOM     62  CE3 TRP B   6       5.735  85.776  57.614  1.00  0.00     0.014 A 
ATOM     63  CZ2 TRP B   6       7.331  84.448  59.531  1.00  0.00     0.030 A 
ATOM     64  NE1 TRP B   6       5.536  85.194  61.114  1.00  0.00    -0.365 N 
ATOM     65  CH2 TRP B   6       7.701  84.491  58.215  1.00  0.00     0.002 A 
ATOM     66  CZ3 TRP B   6       6.916  85.148  57.260  1.00  0.00     0.001 A 
ATOM     67  HE1 TRP B   6       5.876  84.824  61.956  1.00  0.23     0.165 HD
ATOM     68  CD1 TRP B   6       4.373  85.911  60.968  1.00  0.00     0.096 A 
ENDBRANCH  58  59
ENDBRANCH  57  58
BRANCH  57  69
ATOM     69  C   TRP B   6       2.148  88.964  60.432  1.00  0.00     0.241 C 
ATOM     70  N   VAL B   7       2.422  88.619  61.687  1.00  6.11    -0.344 N 
ATOM     71  H   VAL B   7       3.253  88.136  61.878  1.00  0.23     0.163 HD
ATOM     72  O   TRP B   6       1.125  89.569  60.110  1.00  0.00    -0.271 OA
BRANCH  70  73
ATOM     73  CA  VAL B   7       1.519  88.939  62.784  1.00  5.65     0.189 C 
BRANCH  73  74
ATOM     74  CB  VAL B   7       0.557  87.770  63.073  1.00  1.15     0.010 C 
ATOM     75  CG1 VAL B   7       1.278  86.437  62.930  1.00  4.96     0.012 C 
ATOM     76  CG2 VAL B   7      -0.055  87.906  64.459  1.00  9.83     0.012 C 
ENDBRANCH  73  74
BRANCH  73  77
ATOM     77  C   VAL B   7       2.293  89.273  64.056  1.00  4.44     0.197 C 
ATOM     78  O   VAL B   7       2.700  88.328  64.763  1.00  0.00    -0.646 OA
ATOM     79  OXT VAL B   7       2.484  90.475  64.334  1.00  0.00    -0.646 OA
ENDBRANCH  73  77
ENDBRANCH  70  73
ENDBRANCH  57  69
ENDBRANCH  55  57
ENDBRANCH  48  53
ENDBRANCH  46  48
ENDBRANCH   1  44
TORSDOF 29
ENDMDL
MODEL 6
REMARK VINA RESULT:      -7.1      2.243      5.267
REMARK  29 active torsions:
REMARK  status: ('A' for Active; 'I' for Inactive)
REMARK    1  A    between atoms: N_1  and  CA_2 
REMARK    2  A    between atoms: CA_2  and  CB_5 
REMARK    3  A    between atoms: CA_2  and  C_3 
REMARK       I    between atoms: C_3  and  N_14 
REMARK    4  A    between atoms: CB_5  and  CG_6 
REMARK    5  A    between atoms: CG_6  and  CD_7 
REMARK    6  A    between atoms: CD_7  and  CE_8 
REMARK    7  A    between atoms: CE_8  and  NZ_9 
REMARK    8  A    between atoms: N_14  and  CA_15 
REMARK    9  A    between atoms: CA_15  and  C_16 
REMARK       I    between atoms: C_16  and  N_33 
REMARK   10  A    between atoms: CA_20  and  CB_22 
REMARK   11  A    between atoms: CA_20  and  C_21 
REMARK   12  A    between atoms: CA_20  and  N_33 
REMARK       I    between atoms: C_21  and  N_42 
REMARK   13  A    between atoms: CB_22  and  CG_23 
REMARK   14  A    between atoms: CA_36  and  N_42 
REMARK   15  A    between atoms: CA_36  and  CB_38 
REMARK   16  A    between atoms: CA_36  and  C_37 
REMARK       I    between atoms: C_37  and  N_52 
REMARK   17  A    between atoms: CB_38  and  CG_39 
REMARK   18  A    between atoms: CG_39  and  CD_40 
REMARK   19  A    between atoms: CA_46  and  N_52 
REMARK   20  A    between atoms: CA_46  and  CB_48 
REMARK   21  A    between atoms: CA_46  and  C_47 
REMARK       I    between atoms: C_47  and  N_68 
REMARK   22  A    between atoms: CB_48  and  OG1_54 
REMARK   23  A    between atoms: CA_55  and  CB_57 
REMARK   24  A    between atoms: CA_55  and  N_68 
REMARK   25  A    between atoms: CA_55  and  C_56 
REMARK       I    between atoms: C_56  and  N_77 
REMARK   26  A    between atoms: CB_57  and  CG_58 
REMARK   27  A    between atoms: CA_71  and  N_77 
REMARK   28  A    between atoms: CA_71  and  CB_73 
REMARK   29  A    between atoms: CA_71  and  C_72 
ROOT
ATOM      1  CA  GLU B   4       5.182  92.716  63.297  1.00  0.00     0.177 C 
ENDROOT
BRANCH   1   2
ATOM      2  N   GLU B   4       6.567  92.923  63.713  1.00  0.00    -0.346 N 
ATOM      3  C   TRP B   3       6.881  93.142  64.987  1.00  0.00     0.241 C 
ATOM      4  O   TRP B   3       6.038  93.187  65.882  1.00  0.00    -0.271 OA
ATOM      5  H   GLU B   4       7.279  92.896  63.040  1.00  0.23     0.163 HD
BRANCH   3   6
ATOM      6  CA  TRP B   3       8.361  93.340  65.300  1.00  0.00     0.181 C 
BRANCH   6   7
ATOM      7  CB  TRP B   3       9.184  93.275  64.006  1.00  0.00     0.075 C 
BRANCH   7   8
ATOM      8  CG  TRP B   3      10.658  93.473  64.209  1.00  0.00    -0.028 A 
ATOM      9  CD1 TRP B   3      11.294  94.645  64.504  1.00  0.00     0.096 A 
ATOM     10  NE1 TRP B   3      12.649  94.434  64.607  1.00  0.00    -0.365 N 
ATOM     11  HE1 TRP B   3      13.317  95.122  64.813  1.00  0.23     0.165 HD
ATOM     12  CE2 TRP B   3      12.911  93.110  64.374  1.00  0.00     0.042 A 
ATOM     13  CZ2 TRP B   3      14.123  92.422  64.368  1.00  0.00     0.030 A 
ATOM     14  CD2 TRP B   3      11.681  92.474  64.118  1.00  0.00    -0.002 A 
ATOM     15  CH2 TRP B   3      14.087  91.081  64.101  1.00  0.00     0.002 A 
ATOM     16  CZ3 TRP B   3      12.881  90.421  63.841  1.00  0.00     0.001 A 
ATOM     17  CE3 TRP B   3      11.678  91.102  63.847  1.00  0.00     0.014 A 
ENDBRANCH   7   8
ENDBRANCH   6   7
BRANCH   6  18
ATOM     18  N   TRP B   3       8.830  92.354  66.270  1.00  0.00    -0.346 N 
ATOM     19  C   ALA B   2       8.681  91.037  66.068  1.00  0.00     0.240 C 
ATOM     20  O   ALA B   2       8.159  90.584  65.053  1.00  0.00    -0.271 OA
ATOM     21  H   TRP B   3       9.265  92.663  67.093  1.00  0.23     0.163 HD
BRANCH  19  22
ATOM     22  CA  ALA B   2       9.234  90.136  67.147  1.00  0.00     0.172 C 
ATOM     23  CB  ALA B   2      10.771  90.159  67.212  1.00  0.00     0.042 C 
BRANCH  22  24
ATOM     24  N   ALA B   2       8.821  88.752  66.934  1.00  0.00    -0.346 N 
ATOM     25  C   LYS B   1       8.194  88.055  67.886  1.00  0.00     0.254 C 
ATOM     26  O   LYS B   1       7.978  88.525  69.009  1.00  0.00    -0.271 OA
ATOM     27  H   ALA B   2       9.009  88.322  66.070  1.00  0.00     0.163 HD
BRANCH  25  28
ATOM     28  CA  LYS B   1       7.803  86.640  67.531  1.00  0.00     0.350 C 
BRANCH  28  29
ATOM     29  CB  LYS B   1       7.454  85.824  68.806  1.00  0.00     0.048 C 
BRANCH  29  30
ATOM     30  CG  LYS B   1       8.171  84.452  68.874  1.00  0.00     0.004 C 
BRANCH  30  31
ATOM     31  CD  LYS B   1       7.432  83.379  69.678  1.00  0.00     0.027 C 
BRANCH  31  32
ATOM     32  CE  LYS B   1       7.385  82.079  68.862  1.00  0.00     0.229 C 
BRANCH  32  33
ATOM     33  NZ  LYS B   1       7.709  80.940  69.738  1.00  0.00    -0.079 N 
ATOM     34  HZ1 LYS B   1       8.323  81.236  70.506  1.00  0.00     0.274 HD
ATOM     35  HZ2 LYS B   1       6.867  80.555  70.178  1.00  0.00     0.274 HD
ATOM     36  HZ3 LYS B   1       8.156  80.249  69.151  1.00  0.00     0.274 HD
ENDBRANCH  32  33
ENDBRANCH  31  32
ENDBRANCH  30  31
ENDBRANCH  29  30
ENDBRANCH  28  29
BRANCH  28  37
ATOM     37  N   LYS B   1       8.876  85.969  66.802  1.00  0.00     0.312 N 
ATOM     38  H   LYS B   1       8.472  85.473  65.948  1.00  0.00     0.359 HD
ENDBRANCH  28  37
ENDBRANCH  25  28
ENDBRANCH  22  24
ENDBRANCH  19  22
ENDBRANCH   6  18
ENDBRANCH   3   6
ENDBRANCH   1   2
BRANCH   1  39
ATOM     39  CB  GLU B   4       4.787  93.733  62.224  1.00  0.00     0.045 C 
BRANCH  39  40
ATOM     40  CG  GLU B   4       5.902  94.032  61.236  1.00  0.00     0.116 C 
BRANCH  40  41
ATOM     41  CD  GLU B   4       5.440  93.964  59.792  1.00  0.00     0.172 C 
ATOM     42  OE2 GLU B   4       5.956  94.744  58.966  1.00  0.00    -0.648 OA
ATOM     43  OE1 GLU B   4       4.562  93.129  59.490  1.00  0.00    -0.648 OA
ENDBRANCH  40  41
ENDBRANCH  39  40
ENDBRANCH   1  39
BRANCH   1  44
ATOM     44  C   GLU B   4       4.979  91.301  62.763  1.00  0.00     0.241 C 
ATOM     45  O   GLU B   4       4.265  90.498  63.363  1.00  0.00    -0.271 OA
ATOM     46  N   THR B   5       5.617  91.003  61.635  1.00  7.70    -0.344 N 
ATOM     47  H   THR B   5       6.173  91.689  61.208  1.00  0.23     0.163 HD
BRANCH  46  48
ATOM     48  CA  THR B   5       5.516  89.685  61.016  1.00  7.88     0.205 C 
BRANCH  48  49
ATOM     49  CB  THR B   5       6.562  88.739  61.608  1.00  4.05     0.146 C 
ATOM     50  CG2 THR B   5       7.749  88.515  60.697  1.00  3.72     0.042 C 
BRANCH  49  51
ATOM     51  OG1 THR B   5       7.054  89.242  62.837  1.00  7.31    -0.393 OA
ATOM     52  HG1 THR B   5       7.729  89.901  62.665  1.00  0.23     0.210 HD
ENDBRANCH  49  51
ENDBRANCH  48  49
BRANCH  48  53
ATOM     53  C   THR B   5       4.119  89.105  61.212  1.00  7.05     0.243 C 
ATOM     54  O   THR B   5       3.148  89.593  60.634  1.00  6.06    -0.271 OA
ATOM     55  N   TRP B   6       4.025  88.061  62.027  1.00  0.00    -0.346 N 
ATOM     56  H   TRP B   6       4.834  87.715  62.458  1.00  0.23     0.163 HD
BRANCH  55  57
ATOM     57  CA  TRP B   6       2.747  87.414  62.294  1.00  0.00     0.181 C 
BRANCH  57  58
ATOM     58  CB  TRP B   6       2.729  86.010  61.687  1.00  0.00     0.075 C 
BRANCH  58  59
ATOM     59  CG  TRP B   6       3.298  85.965  60.302  1.00  0.00    -0.028 A 
ATOM     60  CD2 TRP B   6       4.646  85.641  59.941  1.00  0.00    -0.002 A 
ATOM     61  CE2 TRP B   6       4.731  85.716  58.538  1.00  0.00     0.042 A 
ATOM     62  CE3 TRP B   6       5.789  85.295  60.668  1.00  0.00     0.014 A 
ATOM     63  CZ2 TRP B   6       5.913  85.457  57.849  1.00  0.00     0.030 A 
ATOM     64  NE1 TRP B   6       3.492  86.069  58.068  1.00  0.00    -0.365 N 
ATOM     65  CH2 TRP B   6       7.017  85.122  58.585  1.00  0.00     0.002 A 
ATOM     66  CZ3 TRP B   6       6.962  85.039  59.981  1.00  0.00     0.001 A 
ATOM     67  HE1 TRP B   6       3.254  86.196  57.126  1.00  0.23     0.165 HD
ATOM     68  CD1 TRP B   6       2.638  86.217  59.135  1.00  0.00     0.096 A 
ENDBRANCH  58  59
ENDBRANCH  57  58
BRANCH  57  69
ATOM     69  C   TRP B   6       2.475  87.342  63.793  1.00  0.00     0.241 C 
ATOM     70  N   VAL B   7       2.641  88.473  64.472  1.00  6.11    -0.344 N 
ATOM     71  H   VAL B   7       2.921  89.280  63.993  1.00  0.23     0.163 HD
ATOM     72  O   TRP B   6       2.127  86.285  64.322  1.00  0.00    -0.271 OA
BRANCH  70  73
ATOM     73  CA  VAL B   7       2.418  88.542  65.911  1.00  5.65     0.189 C 
BRANCH  73  74
ATOM     74  CB  VAL B   7       3.479  89.423  66.598  1.00  1.15     0.010 C 
ATOM     75  CG1 VAL B   7       3.219  89.503  68.095  1.00  4.96     0.012 C 
ATOM     76  CG2 VAL B   7       4.878  88.894  66.321  1.00  9.83     0.012 C 
ENDBRANCH  73  74
BRANCH  73  77
ATOM     77  C   VAL B   7       1.031  89.094  66.227  1.00  4.44     0.197 C 
ATOM     78  O   VAL B   7       0.257  88.388  66.907  1.00  0.00    -0.646 OA
ATOM     79  OXT VAL B   7       0.730  90.224  65.793  1.00  0.00    -0.646 OA
ENDBRANCH  73  77
ENDBRANCH  70  73
ENDBRANCH  57  69
ENDBRANCH  55  57
ENDBRANCH  48  53
ENDBRANCH  46  48
ENDBRANCH   1  44
TORSDOF 29
ENDMDL
MODEL 7
REMARK VINA RESULT:      -6.7      2.298      5.554
REMARK  29 active torsions:
REMARK  status: ('A' for Active; 'I' for Inactive)
REMARK    1  A    between atoms: N_1  and  CA_2 
REMARK    2  A    between atoms: CA_2  and  CB_5 
REMARK    3  A    between atoms: CA_2  and  C_3 
REMARK       I    between atoms: C_3  and  N_14 
REMARK    4  A    between atoms: CB_5  and  CG_6 
REMARK    5  A    between atoms: CG_6  and  CD_7 
REMARK    6  A    between atoms: CD_7  and  CE_8 
REMARK    7  A    between atoms: CE_8  and  NZ_9 
REMARK    8  A    between atoms: N_14  and  CA_15 
REMARK    9  A    between atoms: CA_15  and  C_16 
REMARK       I    between atoms: C_16  and  N_33 
REMARK   10  A    between atoms: CA_20  and  CB_22 
REMARK   11  A    between atoms: CA_20  and  C_21 
REMARK   12  A    between atoms: CA_20  and  N_33 
REMARK       I    between atoms: C_21  and  N_42 
REMARK   13  A    between atoms: CB_22  and  CG_23 
REMARK   14  A    between atoms: CA_36  and  N_42 
REMARK   15  A    between atoms: CA_36  and  CB_38 
REMARK   16  A    between atoms: CA_36  and  C_37 
REMARK       I    between atoms: C_37  and  N_52 
REMARK   17  A    between atoms: CB_38  and  CG_39 
REMARK   18  A    between atoms: CG_39  and  CD_40 
REMARK   19  A    between atoms: CA_46  and  N_52 
REMARK   20  A    between atoms: CA_46  and  CB_48 
REMARK   21  A    between atoms: CA_46  and  C_47 
REMARK       I    between atoms: C_47  and  N_68 
REMARK   22  A    between atoms: CB_48  and  OG1_54 
REMARK   23  A    between atoms: CA_55  and  CB_57 
REMARK   24  A    between atoms: CA_55  and  N_68 
REMARK   25  A    between atoms: CA_55  and  C_56 
REMARK       I    between atoms: C_56  and  N_77 
REMARK   26  A    between atoms: CB_57  and  CG_58 
REMARK   27  A    between atoms: CA_71  and  N_77 
REMARK   28  A    between atoms: CA_71  and  CB_73 
REMARK   29  A    between atoms: CA_71  and  C_72 
ROOT
ATOM      1  CA  GLU B   4       5.320  91.921  62.789  1.00  0.00     0.177 C 
ENDROOT
BRANCH   1   2
ATOM      2  N   GLU B   4       6.668  92.273  63.230  1.00  0.00    -0.346 N 
ATOM      3  C   TRP B   3       6.894  92.739  64.456  1.00  0.00     0.241 C 
ATOM      4  O   TRP B   3       5.998  92.901  65.282  1.00  0.00    -0.271 OA
ATOM      5  H   GLU B   4       7.419  92.162  62.611  1.00  0.23     0.163 HD
BRANCH   3   6
ATOM      6  CA  TRP B   3       8.343  93.070  64.802  1.00  0.00     0.181 C 
BRANCH   6   7
ATOM      7  CB  TRP B   3       9.229  92.914  63.558  1.00  0.00     0.075 C 
BRANCH   7   8
ATOM      8  CG  TRP B   3      10.660  93.312  63.773  1.00  0.00    -0.028 A 
ATOM      9  CD1 TRP B   3      11.145  94.581  63.912  1.00  0.00     0.096 A 
ATOM     10  NE1 TRP B   3      12.509  94.549  64.085  1.00  0.00    -0.365 N 
ATOM     11  HE1 TRP B   3      13.084  95.333  64.209  1.00  0.23     0.165 HD
ATOM     12  CE2 TRP B   3      12.929  93.246  64.055  1.00  0.00     0.042 A 
ATOM     13  CZ2 TRP B   3      14.210  92.712  64.185  1.00  0.00     0.030 A 
ATOM     14  CD2 TRP B   3      11.792  92.439  63.859  1.00  0.00    -0.002 A 
ATOM     15  CH2 TRP B   3      14.339  91.352  64.116  1.00  0.00     0.002 A 
ATOM     16  CZ3 TRP B   3      13.227  90.524  63.920  1.00  0.00     0.001 A 
ATOM     17  CE3 TRP B   3      11.957  91.052  63.791  1.00  0.00     0.014 A 
ENDBRANCH   7   8
ENDBRANCH   6   7
BRANCH   6  18
ATOM     18  N   TRP B   3       8.826  92.233  65.897  1.00  0.00    -0.346 N 
ATOM     19  C   ALA B   2       8.770  90.894  65.842  1.00  0.00     0.240 C 
ATOM     20  O   ALA B   2       8.326  90.296  64.866  1.00  0.00    -0.271 OA
ATOM     21  H   TRP B   3       9.201  92.660  66.696  1.00  0.23     0.163 HD
BRANCH  19  22
ATOM     22  CA  ALA B   2       9.326  90.159  67.039  1.00  0.00     0.172 C 
ATOM     23  CB  ALA B   2      10.816  90.456  67.280  1.00  0.00     0.042 C 
BRANCH  22  24
ATOM     24  N   ALA B   2       9.183  88.715  66.878  1.00  0.00    -0.346 N 
ATOM     25  C   LYS B   1       8.629  87.957  67.830  1.00  0.00     0.254 C 
ATOM     26  O   LYS B   1       8.259  88.427  68.911  1.00  0.00    -0.271 OA
ATOM     27  H   ALA B   2       9.502  88.290  66.051  1.00  0.00     0.163 HD
BRANCH  25  28
ATOM     28  CA  LYS B   1       8.523  86.480  67.530  1.00  0.00     0.350 C 
BRANCH  28  29
ATOM     29  CB  LYS B   1       9.209  85.638  68.640  1.00  0.00     0.048 C 
BRANCH  29  30
ATOM     30  CG  LYS B   1       8.207  84.982  69.623  1.00  0.00     0.004 C 
BRANCH  30  31
ATOM     31  CD  LYS B   1       7.511  83.727  69.090  1.00  0.00     0.027 C 
BRANCH  31  32
ATOM     32  CE  LYS B   1       7.488  82.656  70.189  1.00  0.00     0.229 C 
BRANCH  32  33
ATOM     33  NZ  LYS B   1       7.681  81.327  69.582  1.00  0.00    -0.079 N 
ATOM     34  HZ1 LYS B   1       8.072  81.414  68.636  1.00  0.00     0.274 HD
ATOM     35  HZ2 LYS B   1       8.352  80.766  70.117  1.00  0.00     0.274 HD
ATOM     36  HZ3 LYS B   1       6.773  80.886  69.570  1.00  0.00     0.274 HD
ENDBRANCH  32  33
ENDBRANCH  31  32
ENDBRANCH  30  31
ENDBRANCH  29  30
ENDBRANCH  28  29
BRANCH  28  37
ATOM     37  N   LYS B   1       9.126  86.164  66.238  1.00  0.00     0.312 N 
ATOM     38  H   LYS B   1      10.022  86.731  66.113  1.00  0.00     0.359 HD
ENDBRANCH  28  37
ENDBRANCH  25  28
ENDBRANCH  22  24
ENDBRANCH  19  22
ENDBRANCH   6  18
ENDBRANCH   3   6
ENDBRANCH   1   2
BRANCH   1  39
ATOM     39  CB  GLU B   4       4.613  93.141  62.198  1.00  0.00     0.045 C 
BRANCH  39  40
ATOM     40  CG  GLU B   4       5.559  94.121  61.525  1.00  0.00     0.116 C 
BRANCH  40  41
ATOM     41  CD  GLU B   4       5.392  94.158  60.018  1.00  0.00     0.172 C 
ATOM     42  OE2 GLU B   4       4.442  93.525  59.511  1.00  0.00    -0.648 OA
ATOM     43  OE1 GLU B   4       6.210  94.819  59.346  1.00  0.00    -0.648 OA
ENDBRANCH  40  41
ENDBRANCH  39  40
ENDBRANCH   1  39
BRANCH   1  44
ATOM     44  C   GLU B   4       5.363  90.800  61.754  1.00  0.00     0.241 C 
ATOM     45  O   GLU B   4       5.038  89.651  62.056  1.00  0.00    -0.271 OA
ATOM     46  N   THR B   5       5.771  91.142  60.536  1.00  7.70    -0.344 N 
ATOM     47  H   THR B   5       6.017  92.075  60.362  1.00  0.23     0.163 HD
BRANCH  46  48
ATOM     48  CA  THR B   5       5.863  90.170  59.451  1.00  7.88     0.205 C 
BRANCH  48  49
ATOM     49  CB  THR B   5       6.754  88.997  59.864  1.00  4.05     0.146 C 
ATOM     50  CG2 THR B   5       7.502  88.377  58.703  1.00  3.72     0.042 C 
BRANCH  49  51
ATOM     51  OG1 THR B   5       7.714  89.410  60.820  1.00  7.31    -0.393 OA
ATOM     52  HG1 THR B   5       7.363  89.278  61.703  1.00  0.23     0.210 HD
ENDBRANCH  49  51
ENDBRANCH  48  49
BRANCH  48  53
ATOM     53  C   THR B   5       4.478  89.661  59.066  1.00  7.05     0.243 C 
ATOM     54  O   THR B   5       3.850  90.180  58.144  1.00  6.06    -0.271 OA
ATOM     55  N   TRP B   6       4.008  88.640  59.776  1.00  0.00    -0.346 N 
ATOM     56  H   TRP B   6       4.556  88.267  60.498  1.00  0.23     0.163 HD
BRANCH  55  57
ATOM     57  CA  TRP B   6       2.699  88.060  59.504  1.00  0.00     0.181 C 
BRANCH  57  58
ATOM     58  CB  TRP B   6       2.808  86.538  59.402  1.00  0.00     0.075 C 
BRANCH  58  59
ATOM     59  CG  TRP B   6       4.147  86.018  59.828  1.00  0.00    -0.028 A 
ATOM     60  CD2 TRP B   6       5.231  85.640  58.970  1.00  0.00    -0.002 A 
ATOM     61  CE2 TRP B   6       6.289  85.219  59.798  1.00  0.00     0.042 A 
ATOM     62  CE3 TRP B   6       5.408  85.615  57.585  1.00  0.00     0.014 A 
ATOM     63  CZ2 TRP B   6       7.506  84.780  59.283  1.00  0.00     0.030 A 
ATOM     64  NE1 TRP B   6       5.868  85.336  61.097  1.00  0.00    -0.365 N 
ATOM     65  CH2 TRP B   6       7.653  84.766  57.923  1.00  0.00     0.002 A 
ATOM     66  CZ3 TRP B   6       6.618  85.179  57.076  1.00  0.00     0.001 A 
ATOM     67  HE1 TRP B   6       6.398  85.113  61.891  1.00  0.23     0.165 HD
ATOM     68  CD1 TRP B   6       4.580  85.816  61.106  1.00  0.00     0.096 A 
ENDBRANCH  58  59
ENDBRANCH  57  58
BRANCH  57  69
ATOM     69  C   TRP B   6       1.697  88.444  60.588  1.00  0.00     0.241 C 
ATOM     70  N   VAL B   7       1.768  87.752  61.722  1.00  6.11    -0.344 N 
ATOM     71  H   VAL B   7       2.443  87.047  61.809  1.00  0.23     0.163 HD
ATOM     72  O   TRP B   6       0.877  89.343  60.400  1.00  0.00    -0.271 OA
BRANCH  70  73
ATOM     73  CA  VAL B   7       0.868  88.015  62.837  1.00  5.65     0.189 C 
BRANCH  73  74
ATOM     74  CB  VAL B   7       0.346  86.702  63.453  1.00  1.15     0.010 C 
ATOM     75  CG1 VAL B   7       1.395  85.605  63.340  1.00  4.96     0.012 C 
ATOM     76  CG2 VAL B   7      -0.059  86.913  64.904  1.00  9.83     0.012 C 
ENDBRANCH  73  74
BRANCH  73  77
ATOM     77  C   VAL B   7       1.559  88.835  63.922  1.00  4.44     0.197 C 
ATOM     78  O   VAL B   7       0.908  89.743  64.479  1.00  0.00    -0.646 OA
ATOM     79  OXT VAL B   7       2.744  88.564  64.204  1.00  0.00    -0.646 OA
ENDBRANCH  73  77
ENDBRANCH  70  73
ENDBRANCH  57  69
ENDBRANCH  55  57
ENDBRANCH  48  53
ENDBRANCH  46  48
ENDBRANCH   1  44
TORSDOF 29
ENDMDL
MODEL 8
REMARK VINA RESULT:      -6.5      2.381      5.489
REMARK  29 active torsions:
REMARK  status: ('A' for Active; 'I' for Inactive)
REMARK    1  A    between atoms: N_1  and  CA_2 
REMARK    2  A    between atoms: CA_2  and  CB_5 
REMARK    3  A    between atoms: CA_2  and  C_3 
REMARK       I    between atoms: C_3  and  N_14 
REMARK    4  A    between atoms: CB_5  and  CG_6 
REMARK    5  A    between atoms: CG_6  and  CD_7 
REMARK    6  A    between atoms: CD_7  and  CE_8 
REMARK    7  A    between atoms: CE_8  and  NZ_9 
REMARK    8  A    between atoms: N_14  and  CA_15 
REMARK    9  A    between atoms: CA_15  and  C_16 
REMARK       I    between atoms: C_16  and  N_33 
REMARK   10  A    between atoms: CA_20  and  CB_22 
REMARK   11  A    between atoms: CA_20  and  C_21 
REMARK   12  A    between atoms: CA_20  and  N_33 
REMARK       I    between atoms: C_21  and  N_42 
REMARK   13  A    between atoms: CB_22  and  CG_23 
REMARK   14  A    between atoms: CA_36  and  N_42 
REMARK   15  A    between atoms: CA_36  and  CB_38 
REMARK   16  A    between atoms: CA_36  and  C_37 
REMARK       I    between atoms: C_37  and  N_52 
REMARK   17  A    between atoms: CB_38  and  CG_39 
REMARK   18  A    between atoms: CG_39  and  CD_40 
REMARK   19  A    between atoms: CA_46  and  N_52 
REMARK   20  A    between atoms: CA_46  and  CB_48 
REMARK   21  A    between atoms: CA_46  and  C_47 
REMARK       I    between atoms: C_47  and  N_68 
REMARK   22  A    between atoms: CB_48  and  OG1_54 
REMARK   23  A    between atoms: CA_55  and  CB_57 
REMARK   24  A    between atoms: CA_55  and  N_68 
REMARK   25  A    between atoms: CA_55  and  C_56 
REMARK       I    between atoms: C_56  and  N_77 
REMARK   26  A    between atoms: CB_57  and  CG_58 
REMARK   27  A    between atoms: CA_71  and  N_77 
REMARK   28  A    between atoms: CA_71  and  CB_73 
REMARK   29  A    between atoms: CA_71  and  C_72 
ROOT
ATOM      1  CA  GLU B   4       5.064  92.536  63.378  1.00  0.00     0.177 C 
ENDROOT
BRANCH   1   2
ATOM      2  N   GLU B   4       6.431  92.759  63.842  1.00  0.00    -0.346 N 
ATOM      3  C   TRP B   3       6.684  93.133  65.094  1.00  0.00     0.241 C 
ATOM      4  O   TRP B   3       5.797  93.314  65.926  1.00  0.00    -0.271 OA
ATOM      5  H   GLU B   4       7.176  92.629  63.220  1.00  0.23     0.163 HD
BRANCH   3   6
ATOM      6  CA  TRP B   3       8.151  93.334  65.462  1.00  0.00     0.181 C 
BRANCH   6   7
ATOM      7  CB  TRP B   3       9.017  93.319  64.195  1.00  0.00     0.075 C 
BRANCH   7   8
ATOM      8  CG  TRP B   3       9.903  92.113  64.073  1.00  0.00    -0.028 A 
ATOM      9  CD1 TRP B   3       9.534  90.865  63.661  1.00  0.00     0.096 A 
ATOM     10  NE1 TRP B   3      10.618  90.019  63.688  1.00  0.00    -0.365 N 
ATOM     11  HE1 TRP B   3      10.606  89.072  63.434  1.00  0.23     0.165 HD
ATOM     12  CE2 TRP B   3      11.714  90.716  64.125  1.00  0.00     0.042 A 
ATOM     13  CZ2 TRP B   3      13.028  90.295  64.317  1.00  0.00     0.030 A 
ATOM     14  CD2 TRP B   3      11.301  92.038  64.379  1.00  0.00    -0.002 A 
ATOM     15  CH2 TRP B   3      13.929  91.219  64.769  1.00  0.00     0.002 A 
ATOM     16  CZ3 TRP B   3      13.548  92.540  65.031  1.00  0.00     0.001 A 
ATOM     17  CE3 TRP B   3      12.245  92.960  64.842  1.00  0.00     0.014 A 
ENDBRANCH   7   8
ENDBRANCH   6   7
BRANCH   6  18
ATOM     18  N   TRP B   3       8.597  92.320  66.414  1.00  0.00    -0.346 N 
ATOM     19  C   ALA B   2       8.042  91.100  66.460  1.00  0.00     0.240 C 
ATOM     20  O   ALA B   2       7.142  90.760  65.697  1.00  0.00    -0.271 OA
ATOM     21  H   TRP B   3       9.323  92.536  67.038  1.00  0.23     0.163 HD
BRANCH  19  22
ATOM     22  CA  ALA B   2       8.621  90.148  67.480  1.00  0.00     0.172 C 
ATOM     23  CB  ALA B   2      10.136  89.942  67.311  1.00  0.00     0.042 C 
BRANCH  22  24
ATOM     24  N   ALA B   2       7.983  88.838  67.393  1.00  0.00    -0.346 N 
ATOM     25  C   LYS B   1       7.289  88.328  68.415  1.00  0.00     0.254 C 
ATOM     26  O   LYS B   1       7.194  88.912  69.500  1.00  0.00    -0.271 OA
ATOM     27  H   ALA B   2       8.067  88.318  66.563  1.00  0.00     0.163 HD
BRANCH  25  28
ATOM     28  CA  LYS B   1       6.663  86.972  68.187  1.00  0.00     0.350 C 
BRANCH  28  29
ATOM     29  CB  LYS B   1       5.191  86.951  68.680  1.00  0.00     0.048 C 
BRANCH  29  30
ATOM     30  CG  LYS B   1       4.239  87.814  67.815  1.00  0.00     0.004 C 
BRANCH  30  31
ATOM     31  CD  LYS B   1       3.793  89.127  68.463  1.00  0.00     0.027 C 
BRANCH  31  32
ATOM     32  CE  LYS B   1       4.207  90.301  67.566  1.00  0.00     0.229 C 
BRANCH  32  33
ATOM     33  NZ  LYS B   1       4.402  89.819  66.187  1.00  0.00    -0.079 N 
ATOM     34  HZ1 LYS B   1       5.206  90.285  65.751  1.00  0.00     0.274 HD
ATOM     35  HZ2 LYS B   1       4.608  88.815  66.168  1.00  0.00     0.274 HD
ATOM     36  HZ3 LYS B   1       3.544  90.019  65.692  1.00  0.00     0.274 HD
ENDBRANCH  32  33
ENDBRANCH  31  32
ENDBRANCH  30  31
ENDBRANCH  29  30
ENDBRANCH  28  29
BRANCH  28  37
ATOM     37  N   LYS B   1       7.420  85.926  68.870  1.00  0.00     0.312 N 
ATOM     38  H   LYS B   1       7.673  86.253  69.854  1.00  0.00     0.359 HD
ENDBRANCH  28  37
ENDBRANCH  25  28
ENDBRANCH  22  24
ENDBRANCH  19  22
ENDBRANCH   6  18
ENDBRANCH   3   6
ENDBRANCH   1   2
BRANCH   1  39
ATOM     39  CB  GLU B   4       4.636  93.644  62.415  1.00  0.00     0.045 C 
BRANCH  39  40
ATOM     40  CG  GLU B   4       5.736  94.068  61.456  1.00  0.00     0.116 C 
BRANCH  40  41
ATOM     41  CD  GLU B   4       5.326  93.942  60.001  1.00  0.00     0.172 C 
ATOM     42  OE2 GLU B   4       5.859  94.703  59.166  1.00  0.00    -0.648 OA
ATOM     43  OE1 GLU B   4       4.473  93.083  59.697  1.00  0.00    -0.648 OA
ENDBRANCH  40  41
ENDBRANCH  39  40
ENDBRANCH   1  39
BRANCH   1  44
ATOM     44  C   GLU B   4       4.939  91.179  62.690  1.00  0.00     0.241 C 
ATOM     45  O   GLU B   4       4.030  90.403  62.988  1.00  0.00    -0.271 OA
ATOM     46  N   THR B   5       5.860  90.901  61.772  1.00  7.70    -0.344 N 
ATOM     47  H   THR B   5       6.559  91.562  61.584  1.00  0.23     0.163 HD
BRANCH  46  48
ATOM     48  CA  THR B   5       5.863  89.638  61.039  1.00  7.88     0.205 C 
BRANCH  48  49
ATOM     49  CB  THR B   5       6.209  88.481  61.977  1.00  4.05     0.146 C 
ATOM     50  CG2 THR B   5       7.420  87.691  61.529  1.00  3.72     0.042 C 
BRANCH  49  51
ATOM     51  OG1 THR B   5       6.468  88.957  63.286  1.00  7.31    -0.393 OA
ATOM     52  HG1 THR B   5       7.013  89.746  63.237  1.00  0.23     0.210 HD
ENDBRANCH  49  51
ENDBRANCH  48  49
BRANCH  48  53
ATOM     53  C   THR B   5       4.505  89.392  60.389  1.00  7.05     0.243 C 
ATOM     54  O   THR B   5       4.236  89.876  59.290  1.00  6.06    -0.271 OA
ATOM     55  N   TRP B   6       3.654  88.634  61.072  1.00  0.00    -0.346 N 
ATOM     56  H   TRP B   6       3.926  88.275  61.942  1.00  0.23     0.163 HD
BRANCH  55  57
ATOM     57  CA  TRP B   6       2.327  88.322  60.557  1.00  0.00     0.181 C 
BRANCH  57  58
ATOM     58  CB  TRP B   6       2.330  86.944  59.892  1.00  0.00     0.075 C 
BRANCH  58  59
ATOM     59  CG  TRP B   6       3.443  86.065  60.375  1.00  0.00    -0.028 A 
ATOM     60  CD2 TRP B   6       4.681  85.803  59.703  1.00  0.00    -0.002 A 
ATOM     61  CE2 TRP B   6       5.423  84.931  60.522  1.00  0.00     0.042 A 
ATOM     62  CE3 TRP B   6       5.232  86.220  58.489  1.00  0.00     0.014 A 
ATOM     63  CZ2 TRP B   6       6.687  84.471  60.165  1.00  0.00     0.030 A 
ATOM     64  NE1 TRP B   6       4.671  84.675  61.639  1.00  0.00    -0.365 N 
ATOM     65  CH2 TRP B   6       7.204  84.895  58.970  1.00  0.00     0.002 A 
ATOM     66  CZ3 TRP B   6       6.489  85.762  58.136  1.00  0.00     0.001 A 
ATOM     67  HE1 TRP B   6       4.937  84.098  62.386  1.00  0.23     0.165 HD
ATOM     68  CD1 TRP B   6       3.484  85.360  61.543  1.00  0.00     0.096 A 
ENDBRANCH  58  59
ENDBRANCH  57  58
BRANCH  57  69
ATOM     69  C   TRP B   6       1.286  88.366  61.671  1.00  0.00     0.241 C 
ATOM     70  N   VAL B   7       1.731  88.112  62.897  1.00  6.11    -0.344 N 
ATOM     71  H   VAL B   7       2.681  87.915  63.029  1.00  0.23     0.163 HD
ATOM     72  O   TRP B   6       0.107  88.620  61.422  1.00  0.00    -0.271 OA
BRANCH  70  73
ATOM     73  CA  VAL B   7       0.841  88.118  64.051  1.00  5.65     0.189 C 
BRANCH  73  74
ATOM     74  CB  VAL B   7       0.805  86.737  64.735  1.00  1.15     0.010 C 
ATOM     75  CG1 VAL B   7      -0.061  85.771  63.941  1.00  4.96     0.012 C 
ATOM     76  CG2 VAL B   7       2.213  86.185  64.905  1.00  9.83     0.012 C 
ENDBRANCH  73  74
BRANCH  73  77
ATOM     77  C   VAL B   7       1.270  89.169  65.072  1.00  4.44     0.197 C 
ATOM     78  O   VAL B   7       1.217  88.870  66.283  1.00  0.00    -0.646 OA
ATOM     79  OXT VAL B   7       1.652  90.280  64.652  1.00  0.00    -0.646 OA
ENDBRANCH  73  77
ENDBRANCH  70  73
ENDBRANCH  57  69
ENDBRANCH  55  57
ENDBRANCH  48  53
ENDBRANCH  46  48
ENDBRANCH   1  44
TORSDOF 29
ENDMDL
MODEL 9
REMARK VINA RESULT:      -6.2      2.257      5.540
REMARK  29 active torsions:
REMARK  status: ('A' for Active; 'I' for Inactive)
REMARK    1  A    between atoms: N_1  and  CA_2 
REMARK    2  A    between atoms: CA_2  and  CB_5 
REMARK    3  A    between atoms: CA_2  and  C_3 
REMARK       I    between atoms: C_3  and  N_14 
REMARK    4  A    between atoms: CB_5  and  CG_6 
REMARK    5  A    between atoms: CG_6  and  CD_7 
REMARK    6  A    between atoms: CD_7  and  CE_8 
REMARK    7  A    between atoms: CE_8  and  NZ_9 
REMARK    8  A    between atoms: N_14  and  CA_15 
REMARK    9  A    between atoms: CA_15  and  C_16 
REMARK       I    between atoms: C_16  and  N_33 
REMARK   10  A    between atoms: CA_20  and  CB_22 
REMARK   11  A    between atoms: CA_20  and  C_21 
REMARK   12  A    between atoms: CA_20  and  N_33 
REMARK       I    between atoms: C_21  and  N_42 
REMARK   13  A    between atoms: CB_22  and  CG_23 
REMARK   14  A    between atoms: CA_36  and  N_42 
REMARK   15  A    between atoms: CA_36  and  CB_38 
REMARK   16  A    between atoms: CA_36  and  C_37 
REMARK       I    between atoms: C_37  and  N_52 
REMARK   17  A    between atoms: CB_38  and  CG_39 
REMARK   18  A    between atoms: CG_39  and  CD_40 
REMARK   19  A    between atoms: CA_46  and  N_52 
REMARK   20  A    between atoms: CA_46  and  CB_48 
REMARK   21  A    between atoms: CA_46  and  C_47 
REMARK       I    between atoms: C_47  and  N_68 
REMARK   22  A    between atoms: CB_48  and  OG1_54 
REMARK   23  A    between atoms: CA_55  and  CB_57 
REMARK   24  A    between atoms: CA_55  and  N_68 
REMARK   25  A    between atoms: CA_55  and  C_56 
REMARK       I    between atoms: C_56  and  N_77 
REMARK   26  A    between atoms: CB_57  and  CG_58 
REMARK   27  A    between atoms: CA_71  and  N_77 
REMARK   28  A    between atoms: CA_71  and  CB_73 
REMARK   29  A    between atoms: CA_71  and  C_72 
ROOT
ATOM      1  CA  GLU B   4       5.005  91.975  63.667  1.00  0.00     0.177 C 
ENDROOT
BRANCH   1   2
ATOM      2  N   GLU B   4       6.363  92.011  64.206  1.00  0.00    -0.346 N 
ATOM      3  C   TRP B   3       6.639  92.644  65.344  1.00  0.00     0.241 C 
ATOM      4  O   TRP B   3       5.783  93.231  66.003  1.00  0.00    -0.271 OA
ATOM      5  H   GLU B   4       7.083  91.558  63.721  1.00  0.23     0.163 HD
BRANCH   3   6
ATOM      6  CA  TRP B   3       8.092  92.610  65.808  1.00  0.00     0.181 C 
BRANCH   6   7
ATOM      7  CB  TRP B   3       8.992  92.091  64.676  1.00  0.00     0.075 C 
BRANCH   7   8
ATOM      8  CG  TRP B   3      10.352  92.723  64.639  1.00  0.00    -0.028 A 
ATOM      9  CD1 TRP B   3      10.645  94.047  64.804  1.00  0.00     0.096 A 
ATOM     10  NE1 TRP B   3      12.001  94.248  64.695  1.00  0.00    -0.365 N 
ATOM     11  HE1 TRP B   3      12.455  95.113  64.779  1.00  0.23     0.165 HD
ATOM     12  CE2 TRP B   3      12.610  93.045  64.453  1.00  0.00     0.042 A 
ATOM     13  CZ2 TRP B   3      13.957  92.742  64.270  1.00  0.00     0.030 A 
ATOM     14  CD2 TRP B   3      11.603  92.062  64.409  1.00  0.00    -0.002 A 
ATOM     15  CH2 TRP B   3      14.286  91.434  64.041  1.00  0.00     0.002 A 
ATOM     16  CZ3 TRP B   3      13.307  90.435  63.990  1.00  0.00     0.001 A 
ATOM     17  CE3 TRP B   3      11.970  90.734  64.171  1.00  0.00     0.014 A 
ENDBRANCH   7   8
ENDBRANCH   6   7
BRANCH   6  18
ATOM     18  N   TRP B   3       8.241  91.796  67.011  1.00  0.00    -0.346 N 
ATOM     19  C   ALA B   2       7.818  90.524  67.062  1.00  0.00     0.240 C 
ATOM     20  O   ALA B   2       7.297  89.967  66.099  1.00  0.00    -0.271 OA
ATOM     21  H   TRP B   3       8.662  92.189  67.805  1.00  0.23     0.163 HD
BRANCH  19  22
ATOM     22  CA  ALA B   2       8.058  89.799  68.365  1.00  0.00     0.172 C 
ATOM     23  CB  ALA B   2       9.103  90.498  69.251  1.00  0.00     0.042 C 
BRANCH  22  24
ATOM     24  N   ALA B   2       8.521  88.435  68.126  1.00  0.00    -0.346 N 
ATOM     25  C   LYS B   1       7.677  87.400  68.129  1.00  0.00     0.254 C 
ATOM     26  O   LYS B   1       6.476  87.533  68.385  1.00  0.00    -0.271 OA
ATOM     27  H   ALA B   2       9.477  88.275  67.959  1.00  0.00     0.163 HD
BRANCH  25  28
ATOM     28  CA  LYS B   1       8.282  86.044  67.849  1.00  0.00     0.350 C 
BRANCH  28  29
ATOM     29  CB  LYS B   1       9.219  85.605  69.007  1.00  0.00     0.048 C 
BRANCH  29  30
ATOM     30  CG  LYS B   1       8.515  84.726  70.071  1.00  0.00     0.004 C 
BRANCH  30  31
ATOM     31  CD  LYS B   1       7.224  84.051  69.596  1.00  0.00     0.027 C 
BRANCH  31  32
ATOM     32  CE  LYS B   1       6.060  84.503  70.488  1.00  0.00     0.229 C 
BRANCH  32  33
ATOM     33  NZ  LYS B   1       5.039  85.168  69.662  1.00  0.00    -0.079 N 
ATOM     34  HZ1 LYS B   1       4.398  84.478  69.251  1.00  0.00     0.274 HD
ATOM     35  HZ2 LYS B   1       4.457  85.799  70.222  1.00  0.00     0.274 HD
ATOM     36  HZ3 LYS B   1       5.539  85.680  68.949  1.00  0.00     0.274 HD
ENDBRANCH  32  33
ENDBRANCH  31  32
ENDBRANCH  30  31
ENDBRANCH  29  30
ENDBRANCH  28  29
BRANCH  28  37
ATOM     37  N   LYS B   1       9.029  86.053  66.595  1.00  0.00     0.312 N 
ATOM     38  H   LYS B   1       8.933  85.105  66.114  1.00  0.00     0.359 HD
ENDBRANCH  28  37
ENDBRANCH  25  28
ENDBRANCH  22  24
ENDBRANCH  19  22
ENDBRANCH   6  18
ENDBRANCH   3   6
ENDBRANCH   1   2
BRANCH   1  39
ATOM     39  CB  GLU B   4       4.504  93.392  63.383  1.00  0.00     0.045 C 
BRANCH  39  40
ATOM     40  CG  GLU B   4       5.183  94.046  62.191  1.00  0.00     0.116 C 
BRANCH  40  41
ATOM     41  CD  GLU B   4       4.198  94.501  61.131  1.00  0.00     0.172 C 
ATOM     42  OE2 GLU B   4       4.270  93.989  59.995  1.00  0.00    -0.648 OA
ATOM     43  OE1 GLU B   4       3.354  95.368  61.439  1.00  0.00    -0.648 OA
ENDBRANCH  40  41
ENDBRANCH  39  40
ENDBRANCH   1  39
BRANCH   1  44
ATOM     44  C   GLU B   4       4.950  91.144  62.389  1.00  0.00     0.241 C 
ATOM     45  O   GLU B   4       5.863  90.369  62.101  1.00  0.00    -0.271 OA
ATOM     46  N   THR B   5       3.875  91.314  61.625  1.00  7.70    -0.344 N 
ATOM     47  H   THR B   5       3.185  91.949  61.911  1.00  0.23     0.163 HD
BRANCH  46  48
ATOM     48  CA  THR B   5       3.694  90.586  60.373  1.00  7.88     0.205 C 
BRANCH  48  49
ATOM     49  CB  THR B   5       5.051  90.271  59.741  1.00  4.05     0.146 C 
ATOM     50  CG2 THR B   5       4.940  89.561  58.410  1.00  3.72     0.042 C 
BRANCH  49  51
ATOM     51  OG1 THR B   5       5.794  91.459  59.533  1.00  7.31    -0.393 OA
ATOM     52  HG1 THR B   5       5.199  92.211  59.528  1.00  0.23     0.210 HD
ENDBRANCH  49  51
ENDBRANCH  48  49
BRANCH  48  53
ATOM     53  C   THR B   5       2.918  89.294  60.610  1.00  7.05     0.243 C 
ATOM     54  O   THR B   5       2.030  88.941  59.834  1.00  6.06    -0.271 OA
ATOM     55  N   TRP B   6       3.260  88.591  61.684  1.00  0.00    -0.346 N 
ATOM     56  H   TRP B   6       3.977  88.923  62.265  1.00  0.23     0.163 HD
BRANCH  55  57
ATOM     57  CA  TRP B   6       2.598  87.337  62.019  1.00  0.00     0.181 C 
BRANCH  57  58
ATOM     58  CB  TRP B   6       3.621  86.203  62.093  1.00  0.00     0.075 C 
BRANCH  58  59
ATOM     59  CG  TRP B   6       4.970  86.599  61.577  1.00  0.00    -0.028 A 
ATOM     60  CD2 TRP B   6       5.485  86.366  60.260  1.00  0.00    -0.002 A 
ATOM     61  CE2 TRP B   6       6.783  86.911  60.218  1.00  0.00     0.042 A 
ATOM     62  CE3 TRP B   6       4.975  85.749  59.114  1.00  0.00     0.014 A 
ATOM     63  CZ2 TRP B   6       7.575  86.857  59.074  1.00  0.00     0.030 A 
ATOM     64  NE1 TRP B   6       7.044  87.449  61.451  1.00  0.00    -0.365 N 
ATOM     65  CH2 TRP B   6       7.052  86.248  57.967  1.00  0.00     0.002 A 
ATOM     66  CZ3 TRP B   6       5.764  85.697  57.979  1.00  0.00     0.001 A 
ATOM     67  HE1 TRP B   6       7.875  87.898  61.713  1.00  0.23     0.165 HD
ATOM     68  CD1 TRP B   6       5.950  87.257  62.261  1.00  0.00     0.096 A 
ENDBRANCH  58  59
ENDBRANCH  57  58
BRANCH  57  69
ATOM     69  C   TRP B   6       1.846  87.454  63.341  1.00  0.00     0.241 C 
ATOM     70  N   VAL B   7       2.452  86.938  64.406  1.00  6.11    -0.344 N 
ATOM     71  H   VAL B   7       3.331  86.519  64.298  1.00  0.23     0.163 HD
ATOM     72  O   TRP B   6       0.741  87.995  63.392  1.00  0.00    -0.271 OA
BRANCH  70  73
ATOM     73  CA  VAL B   7       1.842  86.980  65.729  1.00  5.65     0.189 C 
BRANCH  73  74
ATOM     74  CB  VAL B   7       2.131  85.686  66.516  1.00  1.15     0.010 C 
ATOM     75  CG1 VAL B   7       1.214  85.582  67.726  1.00  4.96     0.012 C 
ATOM     76  CG2 VAL B   7       1.981  84.466  65.620  1.00  9.83     0.012 C 
ENDBRANCH  73  74
BRANCH  73  77
ATOM     77  C   VAL B   7       2.347  88.175  66.532  1.00  4.44     0.197 C 
ATOM     78  O   VAL B   7       3.544  88.183  66.886  1.00  0.00    -0.646 OA
ATOM     79  OXT VAL B   7       1.543  89.091  66.799  1.00  0.00    -0.646 OA
ENDBRANCH  73  77
ENDBRANCH  70  73
ENDBRANCH  57  69
ENDBRANCH  55  57
ENDBRANCH  48  53
ENDBRANCH  46  48
ENDBRANCH   1  44
TORSDOF 29
ENDMDL
