REMARK  31 active torsions:
REMARK  status: ('A' for Active; 'I' for Inactive)
REMARK    1  A    between atoms: N_1  and  CA_2 
REMARK    2  A    between atoms: CA_2  and  CB_5 
REMARK    3  A    between atoms: CA_2  and  C_3 
REMARK       I    between atoms: C_3  and  N_14 
REMARK    4  A    between atoms: CB_5  and  CG_6 
REMARK    5  A    between atoms: CG_6  and  CD_7 
REMARK    6  A    between atoms: CD_7  and  CE_8 
REMARK    7  A    between atoms: CE_8  and  NZ_9 
REMARK    8  A    between atoms: N_14  and  CA_15 
REMARK    9  A    between atoms: CA_15  and  C_16 
REMARK   10  A    between atoms: CA_15  and  CB_18 
REMARK       I    between atoms: C_16  and  N_39 
REMARK   11  A    between atoms: CB_18  and  CG_19 
REMARK   12  A    between atoms: CA_26  and  CB_28 
REMARK   13  A    between atoms: CA_26  and  C_27 
REMARK   14  A    between atoms: CA_26  and  N_39 
REMARK       I    between atoms: C_27  and  N_48 
REMARK   15  A    between atoms: CB_28  and  CG_29 
REMARK   16  A    between atoms: CA_42  and  N_48 
REMARK   17  A    between atoms: CA_42  and  CB_44 
REMARK   18  A    between atoms: CA_42  and  C_43 
REMARK       I    between atoms: C_43  and  N_58 
REMARK   19  A    between atoms: CB_44  and  CG_45 
REMARK   20  A    between atoms: CG_45  and  CD_46 
REMARK   21  A    between atoms: CA_52  and  N_58 
REMARK   22  A    between atoms: CA_52  and  CB_54 
REMARK   23  A    between atoms: CA_52  and  C_53 
REMARK       I    between atoms: C_53  and  N_74 
REMARK   24  A    between atoms: CB_54  and  OG1_60 
REMARK   25  A    between atoms: CA_61  and  CB_63 
REMARK   26  A    between atoms: CA_61  and  N_74 
REMARK   27  A    between atoms: CA_61  and  C_62 
REMARK       I    between atoms: C_62  and  N_83 
REMARK   28  A    between atoms: CB_63  and  CG_64 
REMARK   29  A    between atoms: CA_77  and  N_83 
REMARK   30  A    between atoms: CA_77  and  CB_79 
REMARK   31  A    between atoms: CA_77  and  C_78 
ROOT
ATOM      1  C   TRP B   3       3.738  -4.008  -0.173  1.00  0.00     0.241 C 
ATOM      2  O   TRP B   3       4.909  -3.750  -0.448  1.00  0.00    -0.271 OA
ATOM      3  H   GLU B   4       1.805  -3.516  -0.349  1.00  0.23     0.163 HD
ATOM      4  N   GLU B   4       2.719  -3.266  -0.598  1.00  0.00    -0.346 N 
ENDROOT
BRANCH   4   5
ATOM      5  CA  GLU B   4       2.935  -2.082  -1.427  1.00  0.00     0.177 C 
BRANCH   5   6
ATOM      6  CB  GLU B   4       1.619  -1.618  -2.053  1.00  0.00     0.045 C 
BRANCH   6   7
ATOM      7  CG  GLU B   4       0.498  -1.442  -1.042  1.00  0.00     0.116 C 
BRANCH   7   8
ATOM      8  CD  GLU B   4      -0.456  -2.621  -1.013  1.00  0.00     0.172 C 
ATOM      9  OE1 GLU B   4      -1.137  -2.858  -2.032  1.00  0.00    -0.648 OA
ATOM     10  OE2 GLU B   4      -0.521  -3.306   0.029  1.00  0.00    -0.648 OA
ENDBRANCH   7   8
ENDBRANCH   6   7
ENDBRANCH   5   6
BRANCH   5  11
ATOM     11  C   GLU B   4       3.543  -0.948  -0.607  1.00  0.00     0.241 C 
ATOM     12  O   GLU B   4       3.056  -0.622   0.476  1.00  0.00    -0.271 OA
ATOM     13  N   THR B   5       4.607  -0.349  -1.134  1.00  7.70    -0.344 N 
ATOM     14  H   THR B   5       4.944  -0.656  -2.002  1.00  0.23     0.163 HD
BRANCH  13  15
ATOM     15  CA  THR B   5       5.286   0.753  -0.459  1.00  7.88     0.205 C 
BRANCH  15  16
ATOM     16  CB  THR B   5       6.709   0.344  -0.075  1.00  4.05     0.146 C 
ATOM     17  CG2 THR B   5       7.356   1.289   0.914  1.00  3.72     0.042 C 
BRANCH  16  18
ATOM     18  OG1 THR B   5       6.720  -0.951   0.499  1.00  7.31    -0.393 OA
ATOM     19  HG1 THR B   5       6.777  -1.609  -0.197  1.00  0.23     0.210 HD
ENDBRANCH  16  18
ENDBRANCH  15  16
BRANCH  15  20
ATOM     20  C   THR B   5       5.323   1.989  -1.352  1.00  7.05     0.243 C 
ATOM     21  O   THR B   5       5.874   1.955  -2.452  1.00  6.06    -0.271 OA
ATOM     22  N   TRP B   6       4.731   3.078  -0.874  1.00  0.00    -0.346 N 
ATOM     23  H   TRP B   6       4.307   3.044   0.009  1.00  0.23     0.163 HD
BRANCH  22  24
ATOM     24  CA  TRP B   6       4.694   4.322  -1.632  1.00  0.00     0.181 C 
BRANCH  24  25
ATOM     25  CB  TRP B   6       3.466   5.144  -1.238  1.00  0.00     0.075 C 
BRANCH  25  26
ATOM     26  CG  TRP B   6       2.176   4.494  -1.635  1.00  0.00    -0.028 A 
ATOM     27  CD2 TRP B   6       1.490   4.644  -2.884  1.00  0.00    -0.002 A 
ATOM     28  CE2 TRP B   6       0.330   3.849  -2.820  1.00  0.00     0.042 A 
ATOM     29  CE3 TRP B   6       1.744   5.374  -4.048  1.00  0.00     0.014 A 
ATOM     30  CZ2 TRP B   6      -0.572   3.764  -3.877  1.00  0.00     0.030 A 
ATOM     31  NE1 TRP B   6       0.312   3.244  -1.590  1.00  0.00    -0.365 N 
ATOM     32  CH2 TRP B   6      -0.300   4.489  -5.005  1.00  0.00     0.002 A 
ATOM     33  CZ3 TRP B   6       0.846   5.288  -5.097  1.00  0.00     0.001 A 
ATOM     34  CD1 TRP B   6       1.424   3.637  -0.885  1.00  0.00     0.096 A 
ATOM     35  HE1 TRP B   6      -0.381   2.631  -1.266  1.00  0.23     0.165 HD
ENDBRANCH  25  26
ENDBRANCH  24  25
BRANCH  24  36
ATOM     36  C   TRP B   6       5.965   5.135  -1.408  1.00  0.00     0.241 C 
ATOM     37  N   VAL B   7       6.752   5.293  -2.468  1.00  6.11    -0.344 N 
ATOM     38  H   VAL B   7       6.488   4.893  -3.322  1.00  0.23     0.163 HD
ATOM     39  O   TRP B   6       6.227   5.604  -0.300  1.00  0.00    -0.271 OA
BRANCH  37  40
ATOM     40  CA  VAL B   7       7.998   6.045  -2.391  1.00  5.65     0.189 C 
BRANCH  40  41
ATOM     41  CB  VAL B   7       9.053   5.476  -3.360  1.00  1.15     0.010 C 
ATOM     42  CG1 VAL B   7       9.474   4.078  -2.930  1.00  4.96     0.012 C 
ATOM     43  CG2 VAL B   7       8.523   5.465  -4.786  1.00  9.83     0.012 C 
ENDBRANCH  40  41
BRANCH  40  44
ATOM     44  C   VAL B   7       7.772   7.520  -2.710  1.00  4.44     0.197 C 
ATOM     45  O   VAL B   7       8.412   8.369  -2.055  1.00  0.00    -0.646 OA
ATOM     46  OXT VAL B   7       6.958   7.813  -3.609  1.00  0.00    -0.646 OA
ENDBRANCH  40  44
ENDBRANCH  37  40
ENDBRANCH  24  36
ENDBRANCH  22  24
ENDBRANCH  15  20
ENDBRANCH  13  15
ENDBRANCH   5  11
ENDBRANCH   4   5
BRANCH   1  47
ATOM     47  CA  TRP B   3       3.388  -5.218   0.688  1.00  0.00     0.181 C 
BRANCH  47  48
ATOM     48  CB  TRP B   3       2.953  -6.389  -0.205  1.00  0.00     0.075 C 
BRANCH  48  49
ATOM     49  CG  TRP B   3       1.526  -6.311  -0.663  1.00  0.00    -0.028 A 
ATOM     50  CD2 TRP B   3       1.046  -5.752  -1.892  1.00  0.00    -0.002 A 
ATOM     51  CE2 TRP B   3      -0.354  -5.903  -1.902  1.00  0.00     0.042 A 
ATOM     52  CE3 TRP B   3       1.663  -5.137  -2.986  1.00  0.00     0.014 A 
ATOM     53  CZ2 TRP B   3      -1.145  -5.461  -2.960  1.00  0.00     0.030 A 
ATOM     54  NE1 TRP B   3      -0.709  -6.527  -0.735  1.00  0.00    -0.365 N 
ATOM     55  CH2 TRP B   3      -0.513  -4.862  -4.015  1.00  0.00     0.002 A 
ATOM     56  CZ3 TRP B   3       0.877  -4.699  -4.035  1.00  0.00     0.001 A 
ATOM     57  HE1 TRP B   3      -1.622  -6.762  -0.467  1.00  0.23     0.165 HD
ATOM     58  CD1 TRP B   3       0.426  -6.770   0.003  1.00  0.00     0.096 A 
ENDBRANCH  48  49
ENDBRANCH  47  48
BRANCH  47  59
ATOM     59  N   TRP B   3       2.351  -4.888   1.662  1.00  0.00    -0.346 N 
ATOM     60  C   PHE B   2       2.016  -5.729   2.650  1.00  0.00     0.241 C 
ATOM     61  O   PHE B   2       2.568  -6.816   2.803  1.00  0.00    -0.271 OA
ATOM     62  H   TRP B   3       1.886  -4.027   1.592  1.00  0.23     0.163 HD
BRANCH  60  63
ATOM     63  CA  PHE B   2       0.941  -5.246   3.595  1.00  0.00     0.180 C 
BRANCH  63  64
ATOM     64  N   PHE B   2      -0.088  -6.264   3.783  1.00  0.00    -0.346 N 
ATOM     65  C   LYS B   1       0.092  -7.294   4.615  1.00  0.00     0.254 C 
ATOM     66  O   LYS B   1       1.152  -7.467   5.226  1.00  0.00    -0.271 OA
ATOM     67  H   PHE B   2      -0.933  -6.190   3.286  1.00  0.00     0.163 HD
BRANCH  65  68
ATOM     68  CA  LYS B   1      -1.058  -8.267   4.732  1.00  0.00     0.350 C 
BRANCH  68  69
ATOM     69  CB  LYS B   1      -1.448  -8.835   3.340  1.00  0.00     0.048 C 
BRANCH  69  70
ATOM     70  CG  LYS B   1      -2.450 -10.014   3.415  1.00  0.00     0.004 C 
BRANCH  70  71
ATOM     71  CD  LYS B   1      -2.847 -10.609   2.061  1.00  0.00     0.027 C 
BRANCH  71  72
ATOM     72  CE  LYS B   1      -3.849 -11.750   2.284  1.00  0.00     0.229 C 
BRANCH  72  73
ATOM     73  NZ  LYS B   1      -4.242 -12.318   0.983  1.00  0.00    -0.079 N 
ATOM     74  HZ1 LYS B   1      -3.443 -12.334   0.338  1.00  0.00     0.274 HD
ATOM     75  HZ2 LYS B   1      -4.551 -13.291   1.078  1.00  0.00     0.274 HD
ATOM     76  HZ3 LYS B   1      -4.990 -11.736   0.633  1.00  0.00     0.274 HD
ENDBRANCH  72  73
ENDBRANCH  71  72
ENDBRANCH  70  71
ENDBRANCH  69  70
ENDBRANCH  68  69
BRANCH  68  77
ATOM     77  N   LYS B   1      -2.222  -7.630   5.341  1.00  0.00     0.312 N 
ATOM     78  H   LYS B   1      -1.997  -6.610   5.561  1.00  0.00     0.359 HD
ENDBRANCH  68  77
ENDBRANCH  65  68
ENDBRANCH  63  64
BRANCH  63  79
ATOM     79  CB  PHE B   2       1.597  -4.889   4.963  1.00  0.00     0.073 C 
BRANCH  79  80
ATOM     80  CG  PHE B   2       0.684  -4.233   6.010  1.00  0.00    -0.056 A 
ATOM     81  CD2 PHE B   2       0.475  -2.852   6.013  1.00  0.00     0.007 A 
ATOM     82  CE2 PHE B   2      -0.411  -2.280   6.923  1.00  0.00     0.001 A 
ATOM     83  CZ  PHE B   2      -1.094  -3.087   7.831  1.00  0.00     0.000 A 
ATOM     84  CE1 PHE B   2      -0.889  -4.465   7.835  1.00  0.00     0.001 A 
ATOM     85  CD1 PHE B   2       0.003  -5.035   6.933  1.00  0.00     0.007 A 
ENDBRANCH  79  80
ENDBRANCH  63  79
ENDBRANCH  60  63
ENDBRANCH  47  59
ENDBRANCH   1  47
TORSDOF 31
