REMARK WARNING: 32 MAX_TORS EXCEEDED!!!
REMARK  34 active torsions:
REMARK  status: ('A' for Active; 'I' for Inactive)
REMARK    1  A    between atoms: N_1  and  CA_2 
REMARK    2  A    between atoms: CA_2  and  CB_5 
REMARK    3  A    between atoms: CA_2  and  C_3 
REMARK       I    between atoms: C_3  and  N_14 
REMARK    4  A    between atoms: CB_5  and  CG_6 
REMARK    5  A    between atoms: CG_6  and  CD_7 
REMARK    6  A    between atoms: CD_7  and  CE_8 
REMARK    7  A    between atoms: CE_8  and  NZ_9 
REMARK    8  A    between atoms: N_14  and  CA_15 
REMARK    9  A    between atoms: CA_15  and  C_16 
REMARK   10  A    between atoms: CA_15  and  CB_18 
REMARK       I    between atoms: C_16  and  N_40 
REMARK   11  A    between atoms: CB_18  and  CG_19 
REMARK   12  A    between atoms: CG_19  and  CD_20 
REMARK   13  A    between atoms: CD_20  and  CE_21 
REMARK   14  A    between atoms: CE_21  and  NZ_22 
REMARK   15  A    between atoms: CA_27  and  CB_29 
REMARK   16  A    between atoms: CA_27  and  N_40 
REMARK   17  A    between atoms: CA_27  and  C_28 
REMARK       I    between atoms: C_28  and  N_49 
REMARK   18  A    between atoms: CB_29  and  CG_30 
REMARK   19  A    between atoms: CA_43  and  N_49 
REMARK   20  A    between atoms: CA_43  and  CB_45 
REMARK   21  A    between atoms: CA_43  and  C_44 
REMARK       I    between atoms: C_44  and  N_59 
REMARK   22  A    between atoms: CB_45  and  CG_46 
REMARK   23  A    between atoms: CG_46  and  CD_47 
REMARK   24  A    between atoms: CA_53  and  N_59 
REMARK   25  A    between atoms: CA_53  and  C_54 
REMARK   26  A    between atoms: CA_53  and  CB_55 
REMARK       I    between atoms: C_54  and  N_75 
REMARK   27  A    between atoms: CB_55  and  OG1_61 
REMARK   28  A    between atoms: CA_62  and  CB_64 
REMARK   29  A    between atoms: CA_62  and  C_63 
REMARK   30  A    between atoms: CA_62  and  N_75 
REMARK       I    between atoms: C_63  and  N_84 
REMARK   31  A    between atoms: CB_64  and  CG_65 
REMARK   32  A    between atoms: CA_78  and  C_79 
REMARK   33  A    between atoms: CA_78  and  CB_80 
REMARK   34  A    between atoms: CA_78  and  N_84 
ROOT
ATOM      1  C   TRP B   3       3.738  -4.008  -0.173  1.00  0.00     0.241 C 
ATOM      2  O   TRP B   3       4.909  -3.750  -0.448  1.00  0.00    -0.271 OA
ATOM      3  H   GLU B   4       1.805  -3.516  -0.349  1.00  0.23     0.163 HD
ATOM      4  N   GLU B   4       2.719  -3.266  -0.598  1.00  0.00    -0.346 N 
ENDROOT
BRANCH   4   5
ATOM      5  CA  GLU B   4       2.935  -2.082  -1.427  1.00  0.00     0.177 C 
BRANCH   5   6
ATOM      6  CB  GLU B   4       1.619  -1.618  -2.053  1.00  0.00     0.045 C 
BRANCH   6   7
ATOM      7  CG  GLU B   4       0.498  -1.442  -1.042  1.00  0.00     0.116 C 
BRANCH   7   8
ATOM      8  CD  GLU B   4      -0.456  -2.621  -1.013  1.00  0.00     0.172 C 
ATOM      9  OE1 GLU B   4      -1.137  -2.858  -2.032  1.00  0.00    -0.648 OA
ATOM     10  OE2 GLU B   4      -0.521  -3.306   0.029  1.00  0.00    -0.648 OA
ENDBRANCH   7   8
ENDBRANCH   6   7
ENDBRANCH   5   6
BRANCH   5  11
ATOM     11  C   GLU B   4       3.543  -0.948  -0.607  1.00  0.00     0.241 C 
ATOM     12  O   GLU B   4       3.056  -0.622   0.476  1.00  0.00    -0.271 OA
ATOM     13  N   THR B   5       4.607  -0.349  -1.134  1.00  7.70    -0.344 N 
ATOM     14  H   THR B   5       4.944  -0.656  -2.002  1.00  0.23     0.163 HD
BRANCH  13  15
ATOM     15  CA  THR B   5       5.286   0.753  -0.459  1.00  7.88     0.205 C 
BRANCH  15  16
ATOM     16  C   THR B   5       5.323   1.989  -1.352  1.00  7.05     0.243 C 
ATOM     17  O   THR B   5       5.874   1.955  -2.452  1.00  6.06    -0.271 OA
ATOM     18  N   TRP B   6       4.731   3.078  -0.874  1.00  0.00    -0.346 N 
ATOM     19  H   TRP B   6       4.307   3.044   0.009  1.00  0.23     0.163 HD
BRANCH  18  20
ATOM     20  CA  TRP B   6       4.694   4.322  -1.632  1.00  0.00     0.181 C 
BRANCH  20  21
ATOM     21  CB  TRP B   6       3.466   5.144  -1.238  1.00  0.00     0.075 C 
BRANCH  21  22
ATOM     22  CG  TRP B   6       2.176   4.494  -1.635  1.00  0.00    -0.028 A 
ATOM     23  CD2 TRP B   6       1.490   4.644  -2.884  1.00  0.00    -0.002 A 
ATOM     24  CE2 TRP B   6       0.330   3.849  -2.820  1.00  0.00     0.042 A 
ATOM     25  CE3 TRP B   6       1.744   5.374  -4.048  1.00  0.00     0.014 A 
ATOM     26  CZ2 TRP B   6      -0.572   3.764  -3.877  1.00  0.00     0.030 A 
ATOM     27  NE1 TRP B   6       0.312   3.244  -1.590  1.00  0.00    -0.365 N 
ATOM     28  CH2 TRP B   6      -0.300   4.489  -5.005  1.00  0.00     0.002 A 
ATOM     29  CZ3 TRP B   6       0.846   5.288  -5.097  1.00  0.00     0.001 A 
ATOM     30  HE1 TRP B   6      -0.381   2.631  -1.266  1.00  0.23     0.165 HD
ATOM     31  CD1 TRP B   6       1.424   3.637  -0.885  1.00  0.00     0.096 A 
ENDBRANCH  21  22
ENDBRANCH  20  21
BRANCH  20  32
ATOM     32  C   TRP B   6       5.965   5.135  -1.408  1.00  0.00     0.241 C 
ATOM     33  N   VAL B   7       6.752   5.293  -2.468  1.00  6.11    -0.344 N 
ATOM     34  H   VAL B   7       6.488   4.893  -3.322  1.00  0.23     0.163 HD
ATOM     35  O   TRP B   6       6.227   5.604  -0.300  1.00  0.00    -0.271 OA
BRANCH  33  36
ATOM     36  CA  VAL B   7       7.998   6.045  -2.391  1.00  5.65     0.189 C 
BRANCH  36  37
ATOM     37  C   VAL B   7       7.772   7.520  -2.710  1.00  4.44     0.197 C 
ATOM     38  O   VAL B   7       8.412   8.369  -2.055  1.00  0.00    -0.646 OA
ATOM     39  OXT VAL B   7       6.958   7.813  -3.609  1.00  0.00    -0.646 OA
ENDBRANCH  36  37
BRANCH  36  40
ATOM     40  CB  VAL B   7       9.053   5.476  -3.360  1.00  1.15     0.010 C 
ATOM     41  CG1 VAL B   7       9.474   4.078  -2.930  1.00  4.96     0.012 C 
ATOM     42  CG2 VAL B   7       8.523   5.465  -4.786  1.00  9.83     0.012 C 
ENDBRANCH  36  40
ENDBRANCH  33  36
ENDBRANCH  20  32
ENDBRANCH  18  20
ENDBRANCH  15  16
BRANCH  15  43
ATOM     43  CB  THR B   5       6.709   0.344  -0.075  1.00  4.05     0.146 C 
ATOM     44  CG2 THR B   5       7.356   1.289   0.914  1.00  3.72     0.042 C 
BRANCH  43  45
ATOM     45  OG1 THR B   5       6.720  -0.951   0.499  1.00  7.31    -0.393 OA
ATOM     46  HG1 THR B   5       6.777  -1.609  -0.197  1.00  0.23     0.210 HD
ENDBRANCH  43  45
ENDBRANCH  15  43
ENDBRANCH  13  15
ENDBRANCH   5  11
ENDBRANCH   4   5
BRANCH   1  47
ATOM     47  CA  TRP B   3       3.388  -5.218   0.688  1.00  0.00     0.181 C 
BRANCH  47  48
ATOM     48  CB  TRP B   3       2.953  -6.389  -0.205  1.00  0.00     0.075 C 
BRANCH  48  49
ATOM     49  CG  TRP B   3       1.526  -6.311  -0.663  1.00  0.00    -0.028 A 
ATOM     50  CD1 TRP B   3       0.426  -6.770   0.003  1.00  0.00     0.096 A 
ATOM     51  NE1 TRP B   3      -0.709  -6.527  -0.735  1.00  0.00    -0.365 N 
ATOM     52  HE1 TRP B   3      -1.622  -6.762  -0.467  1.00  0.23     0.165 HD
ATOM     53  CE2 TRP B   3      -0.354  -5.903  -1.902  1.00  0.00     0.042 A 
ATOM     54  CZ2 TRP B   3      -1.145  -5.461  -2.960  1.00  0.00     0.030 A 
ATOM     55  CD2 TRP B   3       1.046  -5.752  -1.892  1.00  0.00    -0.002 A 
ATOM     56  CH2 TRP B   3      -0.513  -4.862  -4.015  1.00  0.00     0.002 A 
ATOM     57  CZ3 TRP B   3       0.877  -4.699  -4.035  1.00  0.00     0.001 A 
ATOM     58  CE3 TRP B   3       1.663  -5.137  -2.986  1.00  0.00     0.014 A 
ENDBRANCH  48  49
ENDBRANCH  47  48
BRANCH  47  59
ATOM     59  N   TRP B   3       2.351  -4.888   1.662  1.00  0.00    -0.346 N 
ATOM     60  H   TRP B   3       1.886  -4.027   1.592  1.00  0.23     0.163 HD
ATOM     61  C   LYS B   2       2.016  -5.730   2.650  1.00  0.00     0.241 C 
ATOM     62  O   LYS B   2       2.568  -6.816   2.803  1.00  0.00    -0.271 OA
BRANCH  61  63
ATOM     63  CA  LYS B   2       0.941  -5.245   3.595  1.00  0.00     0.176 C 
BRANCH  63  64
ATOM     64  CB  LYS B   2       1.545  -4.861   4.973  1.00  0.00     0.035 C 
BRANCH  64  65
ATOM     65  CG  LYS B   2       0.537  -4.151   5.911  1.00  0.00     0.004 C 
BRANCH  65  66
ATOM     66  CD  LYS B   2       1.096  -3.765   7.283  1.00  0.00     0.027 C 
BRANCH  66  67
ATOM     67  CE  LYS B   2      -0.005  -3.077   8.102  1.00  0.00     0.229 C 
BRANCH  67  68
ATOM     68  NZ  LYS B   2       0.530  -2.702   9.423  1.00  0.00    -0.079 N 
ATOM     69  HZ3 LYS B   2       0.446  -3.522  10.007  1.00  0.00     0.274 HD
ATOM     70  HZ2 LYS B   2       0.012  -1.913   9.824  1.00  0.00     0.274 HD
ATOM     71  HZ1 LYS B   2       1.506  -2.392   9.344  1.00  0.00     0.274 HD
ENDBRANCH  67  68
ENDBRANCH  66  67
ENDBRANCH  65  66
ENDBRANCH  64  65
ENDBRANCH  63  64
BRANCH  63  72
ATOM     72  N   LYS B   2      -0.088  -6.264   3.783  1.00  0.00    -0.346 N 
ATOM     73  H   LYS B   2      -0.933  -6.191   3.286  1.00  0.00     0.163 HD
ATOM     74  C   LYS B   1       0.092  -7.294   4.615  1.00  0.00     0.254 C 
ATOM     75  O   LYS B   1       1.152  -7.467   5.226  1.00  0.00    -0.271 OA
BRANCH  74  76
ATOM     76  CA  LYS B   1      -1.058  -8.267   4.732  1.00  0.00     0.350 C 
BRANCH  76  77
ATOM     77  CB  LYS B   1      -1.448  -8.835   3.340  1.00  0.00     0.048 C 
BRANCH  77  78
ATOM     78  CG  LYS B   1      -2.450 -10.014   3.415  1.00  0.00     0.004 C 
BRANCH  78  79
ATOM     79  CD  LYS B   1      -2.847 -10.609   2.061  1.00  0.00     0.027 C 
BRANCH  79  80
ATOM     80  CE  LYS B   1      -3.849 -11.750   2.284  1.00  0.00     0.229 C 
BRANCH  80  81
ATOM     81  NZ  LYS B   1      -4.242 -12.318   0.983  1.00  0.00    -0.079 N 
ATOM     82  HZ1 LYS B   1      -3.443 -12.334   0.338  1.00  0.00     0.274 HD
ATOM     83  HZ2 LYS B   1      -4.551 -13.291   1.078  1.00  0.00     0.274 HD
ATOM     84  HZ3 LYS B   1      -4.990 -11.736   0.633  1.00  0.00     0.274 HD
ENDBRANCH  80  81
ENDBRANCH  79  80
ENDBRANCH  78  79
ENDBRANCH  77  78
ENDBRANCH  76  77
BRANCH  76  85
ATOM     85  N   LYS B   1      -2.222  -7.630   5.341  1.00  0.00     0.312 N 
ATOM     86  H   LYS B   1      -1.997  -6.610   5.561  1.00  0.00     0.359 HD
ENDBRANCH  76  85
ENDBRANCH  74  76
ENDBRANCH  63  72
ENDBRANCH  61  63
ENDBRANCH  47  59
ENDBRANCH   1  47
TORSDOF 34
