REMARK  31 active torsions:
REMARK  status: ('A' for Active; 'I' for Inactive)
REMARK    1  A    between atoms: N_1  and  CA_2 
REMARK    2  A    between atoms: CA_2  and  CB_5 
REMARK    3  A    between atoms: CA_2  and  C_3 
REMARK       I    between atoms: C_3  and  N_14 
REMARK    4  A    between atoms: CB_5  and  CG_6 
REMARK    5  A    between atoms: CG_6  and  CD_7 
REMARK    6  A    between atoms: CD_7  and  CE_8 
REMARK    7  A    between atoms: CE_8  and  NZ_9 
REMARK    8  A    between atoms: N_14  and  CA_15 
REMARK    9  A    between atoms: CA_15  and  C_16 
REMARK   10  A    between atoms: CA_15  and  CB_18 
REMARK       I    between atoms: C_16  and  N_38 
REMARK   11  A    between atoms: CB_18  and  CG_19 
REMARK       I    between atoms: CG_19  and  ND2_20 
REMARK   12  A    between atoms: CA_25  and  CB_27 
REMARK   13  A    between atoms: CA_25  and  C_26 
REMARK   14  A    between atoms: CA_25  and  N_38 
REMARK       I    between atoms: C_26  and  N_47 
REMARK   15  A    between atoms: CB_27  and  CG_28 
REMARK   16  A    between atoms: CA_41  and  N_47 
REMARK   17  A    between atoms: CA_41  and  CB_43 
REMARK   18  A    between atoms: CA_41  and  C_42 
REMARK       I    between atoms: C_42  and  N_57 
REMARK   19  A    between atoms: CB_43  and  CG_44 
REMARK   20  A    between atoms: CG_44  and  CD_45 
REMARK   21  A    between atoms: CA_51  and  N_57 
REMARK   22  A    between atoms: CA_51  and  CB_53 
REMARK   23  A    between atoms: CA_51  and  C_52 
REMARK       I    between atoms: C_52  and  N_73 
REMARK   24  A    between atoms: CB_53  and  OG1_59 
REMARK   25  A    between atoms: CA_60  and  CB_62 
REMARK   26  A    between atoms: CA_60  and  N_73 
REMARK   27  A    between atoms: CA_60  and  C_61 
REMARK       I    between atoms: C_61  and  N_82 
REMARK   28  A    between atoms: CB_62  and  CG_63 
REMARK   29  A    between atoms: CA_76  and  N_82 
REMARK   30  A    between atoms: CA_76  and  CB_78 
REMARK   31  A    between atoms: CA_76  and  C_77 
ROOT
ATOM      1  CA  GLU B   4       2.935  -2.082  -1.427  1.00  0.00     0.177 C 
ENDROOT
BRANCH   1   2
ATOM      2  N   GLU B   4       2.719  -3.266  -0.598  1.00  0.00    -0.346 N 
ATOM      3  C   TRP B   3       3.738  -4.008  -0.173  1.00  0.00     0.241 C 
ATOM      4  O   TRP B   3       4.909  -3.750  -0.448  1.00  0.00    -0.271 OA
ATOM      5  H   GLU B   4       1.805  -3.516  -0.349  1.00  0.23     0.163 HD
BRANCH   3   6
ATOM      6  CA  TRP B   3       3.388  -5.218   0.688  1.00  0.00     0.181 C 
BRANCH   6   7
ATOM      7  CB  TRP B   3       2.953  -6.389  -0.205  1.00  0.00     0.075 C 
BRANCH   7   8
ATOM      8  CG  TRP B   3       1.526  -6.311  -0.663  1.00  0.00    -0.028 A 
ATOM      9  CD2 TRP B   3       1.046  -5.752  -1.892  1.00  0.00    -0.002 A 
ATOM     10  CE2 TRP B   3      -0.354  -5.903  -1.902  1.00  0.00     0.042 A 
ATOM     11  CE3 TRP B   3       1.663  -5.137  -2.986  1.00  0.00     0.014 A 
ATOM     12  NE1 TRP B   3      -0.709  -6.527  -0.735  1.00  0.00    -0.365 N 
ATOM     13  CZ2 TRP B   3      -1.145  -5.461  -2.960  1.00  0.00     0.030 A 
ATOM     14  HE1 TRP B   3      -1.622  -6.762  -0.467  1.00  0.23     0.165 HD
ATOM     15  CD1 TRP B   3       0.426  -6.770   0.003  1.00  0.00     0.096 A 
ATOM     16  CH2 TRP B   3      -0.513  -4.862  -4.015  1.00  0.00     0.002 A 
ATOM     17  CZ3 TRP B   3       0.877  -4.699  -4.035  1.00  0.00     0.001 A 
ENDBRANCH   7   8
ENDBRANCH   6   7
BRANCH   6  18
ATOM     18  N   TRP B   3       2.351  -4.888   1.662  1.00  0.00    -0.346 N 
ATOM     19  C   ASN B   2       2.016  -5.730   2.650  1.00  0.00     0.241 C 
ATOM     20  O   ASN B   2       2.568  -6.816   2.803  1.00  0.00    -0.271 OA
ATOM     21  H   TRP B   3       1.886  -4.027   1.592  1.00  0.23     0.163 HD
BRANCH  19  22
ATOM     22  CA  ASN B   2       0.941  -5.245   3.595  1.00  0.00     0.185 C 
BRANCH  22  23
ATOM     23  N   ASN B   2      -0.088  -6.264   3.783  1.00  0.00    -0.345 N 
ATOM     24  C   LYS B   1       0.092  -7.294   4.615  1.00  0.00     0.254 C 
ATOM     25  O   LYS B   1       1.152  -7.467   5.226  1.00  0.00    -0.271 OA
ATOM     26  H   ASN B   2      -0.932  -6.191   3.285  1.00  0.00     0.163 HD
BRANCH  24  27
ATOM     27  CA  LYS B   1      -1.058  -8.267   4.732  1.00  0.00     0.350 C 
BRANCH  27  28
ATOM     28  CB  LYS B   1      -1.448  -8.835   3.340  1.00  0.00     0.048 C 
BRANCH  28  29
ATOM     29  CG  LYS B   1      -2.450 -10.014   3.415  1.00  0.00     0.004 C 
BRANCH  29  30
ATOM     30  CD  LYS B   1      -2.847 -10.609   2.061  1.00  0.00     0.027 C 
BRANCH  30  31
ATOM     31  CE  LYS B   1      -3.849 -11.750   2.284  1.00  0.00     0.229 C 
BRANCH  31  32
ATOM     32  NZ  LYS B   1      -4.242 -12.318   0.983  1.00  0.00    -0.079 N 
ATOM     33  HZ1 LYS B   1      -3.443 -12.334   0.338  1.00  0.00     0.274 HD
ATOM     34  HZ2 LYS B   1      -4.551 -13.291   1.078  1.00  0.00     0.274 HD
ATOM     35  HZ3 LYS B   1      -4.990 -11.736   0.633  1.00  0.00     0.274 HD
ENDBRANCH  31  32
ENDBRANCH  30  31
ENDBRANCH  29  30
ENDBRANCH  28  29
ENDBRANCH  27  28
BRANCH  27  36
ATOM     36  N   LYS B   1      -2.222  -7.630   5.341  1.00  0.00     0.312 N 
ATOM     37  H   LYS B   1      -1.997  -6.610   5.561  1.00  0.00     0.359 HD
ENDBRANCH  27  36
ENDBRANCH  24  27
ENDBRANCH  22  23
BRANCH  22  38
ATOM     38  CB  ASN B   2       1.552  -4.864   4.974  1.00  0.00     0.137 C 
BRANCH  38  39
ATOM     39  CG  ASN B   2       0.645  -4.103   5.948  1.00  0.00     0.217 C 
ATOM     40  OD1 ASN B   2      -0.283  -3.407   5.564  1.00  0.00    -0.274 OA
ATOM     41  ND2 ASN B   2       0.888  -4.182   7.229  1.00  0.00    -0.370 N 
ATOM     42 2HD2 ASN B   2       1.722  -4.697   7.509  1.00  0.00     0.159 HD
ATOM     43 1HD2 ASN B   2       0.327  -3.522   7.774  1.00  0.00     0.159 HD
ENDBRANCH  38  39
ENDBRANCH  22  38
ENDBRANCH  19  22
ENDBRANCH   6  18
ENDBRANCH   3   6
ENDBRANCH   1   2
BRANCH   1  44
ATOM     44  CB  GLU B   4       1.619  -1.618  -2.053  1.00  0.00     0.045 C 
BRANCH  44  45
ATOM     45  CG  GLU B   4       0.498  -1.442  -1.042  1.00  0.00     0.116 C 
BRANCH  45  46
ATOM     46  CD  GLU B   4      -0.456  -2.621  -1.013  1.00  0.00     0.172 C 
ATOM     47  OE2 GLU B   4      -0.521  -3.306   0.029  1.00  0.00    -0.648 OA
ATOM     48  OE1 GLU B   4      -1.137  -2.858  -2.032  1.00  0.00    -0.648 OA
ENDBRANCH  45  46
ENDBRANCH  44  45
ENDBRANCH   1  44
BRANCH   1  49
ATOM     49  C   GLU B   4       3.543  -0.948  -0.607  1.00  0.00     0.241 C 
ATOM     50  O   GLU B   4       3.056  -0.622   0.476  1.00  0.00    -0.271 OA
ATOM     51  N   THR B   5       4.607  -0.349  -1.134  1.00  7.70    -0.344 N 
ATOM     52  H   THR B   5       4.944  -0.656  -2.002  1.00  0.23     0.163 HD
BRANCH  51  53
ATOM     53  CA  THR B   5       5.286   0.753  -0.459  1.00  7.88     0.205 C 
BRANCH  53  54
ATOM     54  CB  THR B   5       6.709   0.344  -0.075  1.00  4.05     0.146 C 
ATOM     55  CG2 THR B   5       7.356   1.289   0.914  1.00  3.72     0.042 C 
BRANCH  54  56
ATOM     56  OG1 THR B   5       6.720  -0.951   0.499  1.00  7.31    -0.393 OA
ATOM     57  HG1 THR B   5       6.777  -1.609  -0.197  1.00  0.23     0.210 HD
ENDBRANCH  54  56
ENDBRANCH  53  54
BRANCH  53  58
ATOM     58  C   THR B   5       5.323   1.989  -1.352  1.00  7.05     0.243 C 
ATOM     59  O   THR B   5       5.874   1.955  -2.452  1.00  6.06    -0.271 OA
ATOM     60  N   TRP B   6       4.731   3.078  -0.874  1.00  0.00    -0.346 N 
ATOM     61  H   TRP B   6       4.307   3.044   0.009  1.00  0.23     0.163 HD
BRANCH  60  62
ATOM     62  CA  TRP B   6       4.694   4.322  -1.632  1.00  0.00     0.181 C 
BRANCH  62  63
ATOM     63  CB  TRP B   6       3.466   5.144  -1.238  1.00  0.00     0.075 C 
BRANCH  63  64
ATOM     64  CG  TRP B   6       2.176   4.494  -1.635  1.00  0.00    -0.028 A 
ATOM     65  CD2 TRP B   6       1.490   4.644  -2.884  1.00  0.00    -0.002 A 
ATOM     66  CE2 TRP B   6       0.330   3.849  -2.820  1.00  0.00     0.042 A 
ATOM     67  CE3 TRP B   6       1.744   5.374  -4.048  1.00  0.00     0.014 A 
ATOM     68  CZ2 TRP B   6      -0.572   3.764  -3.877  1.00  0.00     0.030 A 
ATOM     69  NE1 TRP B   6       0.312   3.244  -1.590  1.00  0.00    -0.365 N 
ATOM     70  CH2 TRP B   6      -0.300   4.489  -5.005  1.00  0.00     0.002 A 
ATOM     71  CZ3 TRP B   6       0.846   5.288  -5.097  1.00  0.00     0.001 A 
ATOM     72  HE1 TRP B   6      -0.381   2.631  -1.266  1.00  0.23     0.165 HD
ATOM     73  CD1 TRP B   6       1.424   3.637  -0.885  1.00  0.00     0.096 A 
ENDBRANCH  63  64
ENDBRANCH  62  63
BRANCH  62  74
ATOM     74  C   TRP B   6       5.965   5.135  -1.408  1.00  0.00     0.241 C 
ATOM     75  N   VAL B   7       6.752   5.293  -2.468  1.00  6.11    -0.344 N 
ATOM     76  H   VAL B   7       6.488   4.893  -3.322  1.00  0.23     0.163 HD
ATOM     77  O   TRP B   6       6.227   5.604  -0.300  1.00  0.00    -0.271 OA
BRANCH  75  78
ATOM     78  CA  VAL B   7       7.998   6.045  -2.391  1.00  5.65     0.189 C 
BRANCH  78  79
ATOM     79  CB  VAL B   7       9.053   5.476  -3.360  1.00  1.15     0.010 C 
ATOM     80  CG1 VAL B   7       9.474   4.078  -2.930  1.00  4.96     0.012 C 
ATOM     81  CG2 VAL B   7       8.523   5.465  -4.786  1.00  9.83     0.012 C 
ENDBRANCH  78  79
BRANCH  78  82
ATOM     82  C   VAL B   7       7.772   7.520  -2.710  1.00  4.44     0.197 C 
ATOM     83  O   VAL B   7       8.412   8.369  -2.055  1.00  0.00    -0.646 OA
ATOM     84  OXT VAL B   7       6.958   7.813  -3.609  1.00  0.00    -0.646 OA
ENDBRANCH  78  82
ENDBRANCH  75  78
ENDBRANCH  62  74
ENDBRANCH  60  62
ENDBRANCH  53  58
ENDBRANCH  51  53
ENDBRANCH   1  49
TORSDOF 31
