MODEL 1
REMARK VINA RESULT:      -6.9      0.000      0.000
REMARK WARNING: 32 MAX_TORS EXCEEDED!!!
REMARK  34 active torsions:
REMARK  status: ('A' for Active; 'I' for Inactive)
REMARK    1  A    between atoms: N_1  and  CA_2 
REMARK    2  A    between atoms: CA_2  and  CB_5 
REMARK    3  A    between atoms: CA_2  and  C_3 
REMARK       I    between atoms: C_3  and  N_14 
REMARK    4  A    between atoms: CB_5  and  CG_6 
REMARK    5  A    between atoms: CG_6  and  CD_7 
REMARK    6  A    between atoms: CD_7  and  CE_8 
REMARK    7  A    between atoms: CE_8  and  NZ_9 
REMARK    8  A    between atoms: N_14  and  CA_15 
REMARK    9  A    between atoms: CA_15  and  C_16 
REMARK   10  A    between atoms: CA_15  and  CB_18 
REMARK       I    between atoms: C_16  and  N_40 
REMARK   11  A    between atoms: CB_18  and  CG_19 
REMARK   12  A    between atoms: CG_19  and  CD_20 
REMARK   13  A    between atoms: CD_20  and  CE_21 
REMARK   14  A    between atoms: CE_21  and  NZ_22 
REMARK   15  A    between atoms: CA_27  and  CB_29 
REMARK   16  A    between atoms: CA_27  and  N_40 
REMARK   17  A    between atoms: CA_27  and  C_28 
REMARK       I    between atoms: C_28  and  N_49 
REMARK   18  A    between atoms: CB_29  and  CG_30 
REMARK   19  A    between atoms: CA_43  and  N_49 
REMARK   20  A    between atoms: CA_43  and  CB_45 
REMARK   21  A    between atoms: CA_43  and  C_44 
REMARK       I    between atoms: C_44  and  N_59 
REMARK   22  A    between atoms: CB_45  and  CG_46 
REMARK   23  A    between atoms: CG_46  and  CD_47 
REMARK   24  A    between atoms: CA_53  and  N_59 
REMARK   25  A    between atoms: CA_53  and  C_54 
REMARK   26  A    between atoms: CA_53  and  CB_55 
REMARK       I    between atoms: C_54  and  N_75 
REMARK   27  A    between atoms: CB_55  and  OG1_61 
REMARK   28  A    between atoms: CA_62  and  CB_64 
REMARK   29  A    between atoms: CA_62  and  C_63 
REMARK   30  A    between atoms: CA_62  and  N_75 
REMARK       I    between atoms: C_63  and  N_84 
REMARK   31  A    between atoms: CB_64  and  CG_65 
REMARK   32  A    between atoms: CA_78  and  C_79 
REMARK   33  A    between atoms: CA_78  and  CB_80 
REMARK   34  A    between atoms: CA_78  and  N_84 
ROOT
ATOM      1  C   TRP B   3       1.291  87.800  61.952  1.00  0.00     0.241 C 
ATOM      2  O   TRP B   3       0.172  87.318  62.127  1.00  0.00    -0.271 OA
ATOM      3  H   GLU B   4       2.973  88.522  62.764  1.00  0.23     0.163 HD
ATOM      4  N   GLU B   4       2.092  88.142  62.958  1.00  0.00    -0.346 N 
ENDROOT
BRANCH   4   5
ATOM      5  CA  GLU B   4       1.682  87.965  64.350  1.00  0.00     0.177 C 
BRANCH   5   6
ATOM      6  CB  GLU B   4       2.353  86.730  64.954  1.00  0.00     0.045 C 
BRANCH   6   7
ATOM      7  CG  GLU B   4       1.433  85.523  65.037  1.00  0.00     0.116 C 
BRANCH   7   8
ATOM      8  CD  GLU B   4       1.768  84.610  66.201  1.00  0.00     0.172 C 
ATOM      9  OE1 GLU B   4       1.393  83.421  66.150  1.00  0.00    -0.648 OA
ATOM     10  OE2 GLU B   4       2.406  85.086  67.164  1.00  0.00    -0.648 OA
ENDBRANCH   7   8
ENDBRANCH   6   7
ENDBRANCH   5   6
BRANCH   5  11
ATOM     11  C   GLU B   4       2.028  89.197  65.180  1.00  0.00     0.241 C 
ATOM     12  O   GLU B   4       1.406  90.249  65.036  1.00  0.00    -0.271 OA
ATOM     13  N   THR B   5       3.029  89.058  66.045  1.00  7.70    -0.344 N 
ATOM     14  H   THR B   5       3.485  88.193  66.109  1.00  0.23     0.163 HD
BRANCH  13  15
ATOM     15  CA  THR B   5       3.469  90.157  66.900  1.00  7.88     0.205 C 
BRANCH  15  16
ATOM     16  C   THR B   5       4.990  90.174  67.013  1.00  7.05     0.243 C 
ATOM     17  O   THR B   5       5.586  91.204  67.324  1.00  6.06    -0.271 OA
ATOM     18  N   TRP B   6       5.611  89.027  66.763  1.00  0.00    -0.346 N 
ATOM     19  H   TRP B   6       5.082  88.238  66.521  1.00  0.23     0.163 HD
BRANCH  18  20
ATOM     20  CA  TRP B   6       7.062  88.911  66.841  1.00  0.00     0.181 C 
BRANCH  20  21
ATOM     21  CB  TRP B   6       7.461  87.463  67.128  1.00  0.00     0.075 C 
BRANCH  21  22
ATOM     22  CG  TRP B   6       8.588  87.351  68.109  1.00  0.00    -0.028 A 
ATOM     23  CD2 TRP B   6       8.768  86.326  69.093  1.00  0.00    -0.002 A 
ATOM     24  CE2 TRP B   6       9.960  86.616  69.784  1.00  0.00     0.042 A 
ATOM     25  CE3 TRP B   6       8.037  85.192  69.457  1.00  0.00     0.014 A 
ATOM     26  CZ2 TRP B   6      10.435  85.813  70.817  1.00  0.00     0.030 A 
ATOM     27  NE1 TRP B   6      10.479  87.765  69.245  1.00  0.00    -0.365 N 
ATOM     28  CH2 TRP B   6       9.700  84.709  71.153  1.00  0.00     0.002 A 
ATOM     29  CZ3 TRP B   6       8.512  84.395  70.484  1.00  0.00     0.001 A 
ATOM     30  HE1 TRP B   6      11.308  88.204  69.530  1.00  0.23     0.165 HD
ATOM     31  CD1 TRP B   6       9.649  88.199  68.240  1.00  0.00     0.096 A 
ENDBRANCH  21  22
ENDBRANCH  20  21
BRANCH  20  32
ATOM     32  C   TRP B   6       7.718  89.392  65.551  1.00  0.00     0.241 C 
ATOM     33  N   VAL B   7       8.341  90.565  65.614  1.00  6.11    -0.344 N 
ATOM     34  H   VAL B   7       8.352  91.054  66.462  1.00  0.23     0.163 HD
ATOM     35  O   TRP B   6       7.656  88.717  64.523  1.00  0.00    -0.271 OA
BRANCH  33  36
ATOM     36  CA  VAL B   7       9.006  91.141  64.453  1.00  5.65     0.189 C 
BRANCH  36  37
ATOM     37  C   VAL B   7      10.524  91.077  64.599  1.00  4.44     0.197 C 
ATOM     38  O   VAL B   7      11.081  91.921  65.331  1.00  0.00    -0.646 OA
ATOM     39  OXT VAL B   7      11.141  90.186  63.980  1.00  0.00    -0.646 OA
ENDBRANCH  36  37
BRANCH  36  40
ATOM     40  CB  VAL B   7       8.583  92.608  64.239  1.00  1.15     0.010 C 
ATOM     41  CG1 VAL B   7       8.323  92.879  62.764  1.00  4.96     0.012 C 
ATOM     42  CG2 VAL B   7       7.354  92.939  65.072  1.00  9.83     0.012 C 
ENDBRANCH  36  40
ENDBRANCH  33  36
ENDBRANCH  20  32
ENDBRANCH  18  20
ENDBRANCH  15  16
BRANCH  15  43
ATOM     43  CB  THR B   5       2.843  90.030  68.290  1.00  4.05     0.146 C 
ATOM     44  CG2 THR B   5       2.127  88.715  68.506  1.00  3.72     0.042 C 
BRANCH  43  45
ATOM     45  OG1 THR B   5       3.832  90.150  69.297  1.00  7.31    -0.393 OA
ATOM     46  HG1 THR B   5       4.614  89.658  69.037  1.00  0.23     0.210 HD
ENDBRANCH  43  45
ENDBRANCH  15  43
ENDBRANCH  13  15
ENDBRANCH   5  11
ENDBRANCH   4   5
BRANCH   1  47
ATOM     47  CA  TRP B   3       1.828  88.035  60.544  1.00  0.00     0.181 C 
BRANCH  47  48
ATOM     48  CB  TRP B   3       2.183  86.692  59.888  1.00  0.00     0.075 C 
BRANCH  48  49
ATOM     49  CG  TRP B   3       3.034  85.800  60.744  1.00  0.00    -0.028 A 
ATOM     50  CD1 TRP B   3       4.371  85.931  60.988  1.00  0.00     0.096 A 
ATOM     51  NE1 TRP B   3       4.802  84.919  61.813  1.00  0.00    -0.365 N 
ATOM     52  HE1 TRP B   3       5.721  84.799  62.133  1.00  0.23     0.165 HD
ATOM     53  CE2 TRP B   3       3.739  84.110  62.115  1.00  0.00     0.042 A 
ATOM     54  CZ2 TRP B   3       3.678  82.966  62.908  1.00  0.00     0.030 A 
ATOM     55  CD2 TRP B   3       2.609  84.633  61.457  1.00  0.00    -0.002 A 
ATOM     56  CH2 TRP B   3       2.464  82.349  63.036  1.00  0.00     0.002 A 
ATOM     57  CZ3 TRP B   3       1.323  82.843  62.393  1.00  0.00     0.001 A 
ATOM     58  CE3 TRP B   3       1.382  83.978  61.606  1.00  0.00     0.014 A 
ENDBRANCH  48  49
ENDBRANCH  47  48
BRANCH  47  59
ATOM     59  N   TRP B   3       2.981  88.931  60.563  1.00  0.00    -0.346 N 
ATOM     60  H   TRP B   3       3.657  88.825  61.265  1.00  0.23     0.163 HD
ATOM     61  C   LYS B   2       3.141  89.895  59.645  1.00  0.00     0.241 C 
ATOM     62  O   LYS B   2       2.326  90.091  58.749  1.00  0.00    -0.271 OA
BRANCH  61  63
ATOM     63  CA  LYS B   2       4.371  90.759  59.804  1.00  0.00     0.176 C 
BRANCH  63  64
ATOM     64  CB  LYS B   2       4.156  92.155  59.158  1.00  0.00     0.035 C 
BRANCH  64  65
ATOM     65  CG  LYS B   2       4.436  93.331  60.126  1.00  0.00     0.004 C 
BRANCH  65  66
ATOM     66  CD  LYS B   2       4.878  92.917  61.532  1.00  0.00     0.027 C 
BRANCH  66  67
ATOM     67  CE  LYS B   2       4.754  94.121  62.476  1.00  0.00     0.229 C 
BRANCH  67  68
ATOM     68  NZ  LYS B   2       3.992  95.190  61.807  1.00  0.00    -0.079 N 
ATOM     69  HZ3 LYS B   2       3.465  94.745  61.069  1.00  0.00     0.274 HD
ATOM     70  HZ2 LYS B   2       4.616  95.910  61.427  1.00  0.00     0.274 HD
ATOM     71  HZ1 LYS B   2       3.377  95.670  62.476  1.00  0.00     0.274 HD
ENDBRANCH  67  68
ENDBRANCH  66  67
ENDBRANCH  65  66
ENDBRANCH  64  65
ENDBRANCH  63  64
BRANCH  63  72
ATOM     72  N   LYS B   2       5.539  90.121  59.203  1.00  0.00    -0.346 N 
ATOM     73  H   LYS B   2       5.609  90.070  58.224  1.00  0.00     0.163 HD
ATOM     74  C   LYS B   1       6.516  89.603  59.953  1.00  0.00     0.254 C 
ATOM     75  O   LYS B   1       6.510  89.683  61.186  1.00  0.00    -0.271 OA
BRANCH  74  76
ATOM     76  CA  LYS B   1       7.659  88.955  59.207  1.00  0.00     0.350 C 
BRANCH  76  77
ATOM     77  CB  LYS B   1       7.140  88.164  57.975  1.00  0.00     0.048 C 
BRANCH  77  78
ATOM     78  CG  LYS B   1       6.669  86.729  58.318  1.00  0.00     0.004 C 
BRANCH  78  79
ATOM     79  CD  LYS B   1       6.920  85.690  57.222  1.00  0.00     0.027 C 
BRANCH  79  80
ATOM     80  CE  LYS B   1       7.551  84.438  57.847  1.00  0.00     0.229 C 
BRANCH  80  81
ATOM     81  NZ  LYS B   1       7.422  84.504  59.312  1.00  0.00    -0.079 N 
ATOM     82  HZ1 LYS B   1       7.306  85.476  59.623  1.00  0.00     0.274 HD
ATOM     83  HZ2 LYS B   1       6.591  83.999  59.638  1.00  0.00     0.274 HD
ATOM     84  HZ3 LYS B   1       8.264  84.092  59.691  1.00  0.00     0.274 HD
ENDBRANCH  80  81
ENDBRANCH  79  80
ENDBRANCH  78  79
ENDBRANCH  77  78
ENDBRANCH  76  77
BRANCH  76  85
ATOM     85  N   LYS B   1       8.410  88.057  60.080  1.00  0.00     0.312 N 
ATOM     86  H   LYS B   1       8.188  88.281  61.100  1.00  0.00     0.359 HD
ENDBRANCH  76  85
ENDBRANCH  74  76
ENDBRANCH  63  72
ENDBRANCH  61  63
ENDBRANCH  47  59
ENDBRANCH   1  47
TORSDOF 34
ENDMDL
MODEL 2
REMARK VINA RESULT:      -6.8      2.550      5.913
REMARK WARNING: 32 MAX_TORS EXCEEDED!!!
REMARK  34 active torsions:
REMARK  status: ('A' for Active; 'I' for Inactive)
REMARK    1  A    between atoms: N_1  and  CA_2 
REMARK    2  A    between atoms: CA_2  and  CB_5 
REMARK    3  A    between atoms: CA_2  and  C_3 
REMARK       I    between atoms: C_3  and  N_14 
REMARK    4  A    between atoms: CB_5  and  CG_6 
REMARK    5  A    between atoms: CG_6  and  CD_7 
REMARK    6  A    between atoms: CD_7  and  CE_8 
REMARK    7  A    between atoms: CE_8  and  NZ_9 
REMARK    8  A    between atoms: N_14  and  CA_15 
REMARK    9  A    between atoms: CA_15  and  C_16 
REMARK   10  A    between atoms: CA_15  and  CB_18 
REMARK       I    between atoms: C_16  and  N_40 
REMARK   11  A    between atoms: CB_18  and  CG_19 
REMARK   12  A    between atoms: CG_19  and  CD_20 
REMARK   13  A    between atoms: CD_20  and  CE_21 
REMARK   14  A    between atoms: CE_21  and  NZ_22 
REMARK   15  A    between atoms: CA_27  and  CB_29 
REMARK   16  A    between atoms: CA_27  and  N_40 
REMARK   17  A    between atoms: CA_27  and  C_28 
REMARK       I    between atoms: C_28  and  N_49 
REMARK   18  A    between atoms: CB_29  and  CG_30 
REMARK   19  A    between atoms: CA_43  and  N_49 
REMARK   20  A    between atoms: CA_43  and  CB_45 
REMARK   21  A    between atoms: CA_43  and  C_44 
REMARK       I    between atoms: C_44  and  N_59 
REMARK   22  A    between atoms: CB_45  and  CG_46 
REMARK   23  A    between atoms: CG_46  and  CD_47 
REMARK   24  A    between atoms: CA_53  and  N_59 
REMARK   25  A    between atoms: CA_53  and  C_54 
REMARK   26  A    between atoms: CA_53  and  CB_55 
REMARK       I    between atoms: C_54  and  N_75 
REMARK   27  A    between atoms: CB_55  and  OG1_61 
REMARK   28  A    between atoms: CA_62  and  CB_64 
REMARK   29  A    between atoms: CA_62  and  C_63 
REMARK   30  A    between atoms: CA_62  and  N_75 
REMARK       I    between atoms: C_63  and  N_84 
REMARK   31  A    between atoms: CB_64  and  CG_65 
REMARK   32  A    between atoms: CA_78  and  C_79 
REMARK   33  A    between atoms: CA_78  and  CB_80 
REMARK   34  A    between atoms: CA_78  and  N_84 
ROOT
ATOM      1  C   TRP B   3       2.137  87.877  63.518  1.00  0.00     0.241 C 
ATOM      2  O   TRP B   3       1.072  88.420  63.810  1.00  0.00    -0.271 OA
ATOM      3  H   GLU B   4       4.136  87.896  63.625  1.00  0.23     0.163 HD
ATOM      4  N   GLU B   4       3.318  88.367  63.885  1.00  0.00    -0.346 N 
ENDROOT
BRANCH   4   5
ATOM      5  CA  GLU B   4       3.421  89.598  64.666  1.00  0.00     0.177 C 
BRANCH   5   6
ATOM      6  CB  GLU B   4       4.014  89.310  66.046  1.00  0.00     0.045 C 
BRANCH   6   7
ATOM      7  CG  GLU B   4       3.113  89.739  67.192  1.00  0.00     0.116 C 
BRANCH   7   8
ATOM      8  CD  GLU B   4       3.368  88.953  68.464  1.00  0.00     0.172 C 
ATOM      9  OE1 GLU B   4       3.365  89.566  69.551  1.00  0.00    -0.648 OA
ATOM     10  OE2 GLU B   4       3.571  87.724  68.371  1.00  0.00    -0.648 OA
ENDBRANCH   7   8
ENDBRANCH   6   7
ENDBRANCH   5   6
BRANCH   5  11
ATOM     11  C   GLU B   4       4.279  90.631  63.942  1.00  0.00     0.241 C 
ATOM     12  O   GLU B   4       4.028  90.956  62.781  1.00  0.00    -0.271 OA
ATOM     13  N   THR B   5       5.294  91.140  64.635  1.00  7.70    -0.344 N 
ATOM     14  H   THR B   5       5.439  90.836  65.556  1.00  0.23     0.163 HD
BRANCH  13  15
ATOM     15  CA  THR B   5       6.197  92.134  64.064  1.00  7.88     0.205 C 
BRANCH  15  16
ATOM     16  C   THR B   5       7.583  92.024  64.692  1.00  7.05     0.243 C 
ATOM     17  O   THR B   5       7.898  92.731  65.649  1.00  6.06    -0.271 OA
ATOM     18  N   TRP B   6       8.405  91.132  64.151  1.00  0.00    -0.346 N 
ATOM     19  H   TRP B   6       8.097  90.597  63.390  1.00  0.23     0.163 HD
BRANCH  18  20
ATOM     20  CA  TRP B   6       9.754  90.929  64.662  1.00  0.00     0.181 C 
BRANCH  20  21
ATOM     21  CB  TRP B   6      10.543  92.238  64.609  1.00  0.00     0.075 C 
BRANCH  21  22
ATOM     22  CG  TRP B   6      11.903  92.077  64.003  1.00  0.00    -0.028 A 
ATOM     23  CD2 TRP B   6      12.824  93.124  63.675  1.00  0.00    -0.002 A 
ATOM     24  CE2 TRP B   6      13.974  92.514  63.138  1.00  0.00     0.042 A 
ATOM     25  CE3 TRP B   6      12.787  94.517  63.781  1.00  0.00     0.014 A 
ATOM     26  CZ2 TRP B   6      15.076  93.251  62.711  1.00  0.00     0.030 A 
ATOM     27  NE1 TRP B   6      13.762  91.160  63.141  1.00  0.00    -0.365 N 
ATOM     28  CH2 TRP B   6      15.013  94.613  62.826  1.00  0.00     0.002 A 
ATOM     29  CZ3 TRP B   6      13.883  95.247  63.356  1.00  0.00     0.001 A 
ATOM     30  HE1 TRP B   6      14.395  90.483  62.823  1.00  0.23     0.165 HD
ATOM     31  CD1 TRP B   6      12.516  90.906  63.662  1.00  0.00     0.096 A 
ENDBRANCH  21  22
ENDBRANCH  20  21
BRANCH  20  32
ATOM     32  C   TRP B   6       9.721  90.393  66.090  1.00  0.00     0.241 C 
ATOM     33  N   VAL B   7       8.681  89.626  66.402  1.00  6.11    -0.344 N 
ATOM     34  H   VAL B   7       8.002  89.443  65.721  1.00  0.23     0.163 HD
ATOM     35  O   TRP B   6      10.616  90.672  66.889  1.00  0.00    -0.271 OA
BRANCH  33  36
ATOM     36  CA  VAL B   7       8.526  89.052  67.733  1.00  5.65     0.189 C 
BRANCH  36  37
ATOM     37  C   VAL B   7       8.877  87.567  67.737  1.00  4.44     0.197 C 
ATOM     38  O   VAL B   7       9.817  87.186  68.465  1.00  0.00    -0.646 OA
ATOM     39  OXT VAL B   7       8.211  86.800  67.012  1.00  0.00    -0.646 OA
ENDBRANCH  36  37
BRANCH  36  40
ATOM     40  CB  VAL B   7       7.085  89.230  68.252  1.00  1.15     0.010 C 
ATOM     41  CG1 VAL B   7       6.961  88.705  69.675  1.00  4.96     0.012 C 
ATOM     42  CG2 VAL B   7       6.664  90.690  68.177  1.00  9.83     0.012 C 
ENDBRANCH  36  40
ENDBRANCH  33  36
ENDBRANCH  20  32
ENDBRANCH  18  20
ENDBRANCH  15  16
BRANCH  15  43
ATOM     43  CB  THR B   5       5.639  93.542  64.276  1.00  4.05     0.146 C 
ATOM     44  CG2 THR B   5       4.755  94.011  63.140  1.00  3.72     0.042 C 
BRANCH  43  45
ATOM     45  OG1 THR B   5       4.875  93.604  65.467  1.00  7.31    -0.393 OA
ATOM     46  HG1 THR B   5       4.922  94.491  65.831  1.00  0.23     0.210 HD
ENDBRANCH  43  45
ENDBRANCH  15  43
ENDBRANCH  13  15
ENDBRANCH   5  11
ENDBRANCH   4   5
BRANCH   1  47
ATOM     47  CA  TRP B   3       2.157  86.588  62.703  1.00  0.00     0.181 C 
BRANCH  47  48
ATOM     48  CB  TRP B   3       2.189  85.374  63.643  1.00  0.00     0.075 C 
BRANCH  48  49
ATOM     49  CG  TRP B   3       1.684  84.105  63.020  1.00  0.00    -0.028 A 
ATOM     50  CD1 TRP B   3       0.762  83.995  62.020  1.00  0.00     0.096 A 
ATOM     51  NE1 TRP B   3       0.548  82.670  61.718  1.00  0.00    -0.365 N 
ATOM     52  HE1 TRP B   3      -0.068  82.335  61.033  1.00  0.23     0.165 HD
ATOM     53  CE2 TRP B   3       1.336  81.897  62.530  1.00  0.00     0.042 A 
ATOM     54  CZ2 TRP B   3       1.467  80.512  62.599  1.00  0.00     0.030 A 
ATOM     55  CD2 TRP B   3       2.064  82.767  63.365  1.00  0.00    -0.002 A 
ATOM     56  CH2 TRP B   3       2.343  80.005  63.520  1.00  0.00     0.002 A 
ATOM     57  CZ3 TRP B   3       3.080  80.844  64.364  1.00  0.00     0.001 A 
ATOM     58  CE3 TRP B   3       2.950  82.218  64.297  1.00  0.00     0.014 A 
ENDBRANCH  48  49
ENDBRANCH  47  48
BRANCH  47  59
ATOM     59  N   TRP B   3       3.289  86.566  61.780  1.00  0.00    -0.346 N 
ATOM     60  H   TRP B   3       4.200  86.614  62.140  1.00  0.23     0.163 HD
ATOM     61  C   LYS B   2       3.117  86.483  60.453  1.00  0.00     0.241 C 
ATOM     62  O   LYS B   2       2.004  86.435  59.937  1.00  0.00    -0.271 OA
BRANCH  61  63
ATOM     63  CA  LYS B   2       4.379  86.493  59.622  1.00  0.00     0.176 C 
BRANCH  63  64
ATOM     64  CB  LYS B   2       5.627  86.220  60.504  1.00  0.00     0.035 C 
BRANCH  64  65
ATOM     65  CG  LYS B   2       6.927  86.020  59.686  1.00  0.00     0.004 C 
BRANCH  65  66
ATOM     66  CD  LYS B   2       7.904  87.198  59.731  1.00  0.00     0.027 C 
BRANCH  66  67
ATOM     67  CE  LYS B   2       7.881  87.821  61.134  1.00  0.00     0.229 C 
BRANCH  67  68
ATOM     68  NZ  LYS B   2       7.732  89.283  61.019  1.00  0.00    -0.079 N 
ATOM     69  HZ3 LYS B   2       7.526  89.622  61.948  1.00  0.00     0.274 HD
ATOM     70  HZ2 LYS B   2       6.982  89.530  60.364  1.00  0.00     0.274 HD
ATOM     71  HZ1 LYS B   2       8.590  89.705  60.643  1.00  0.00     0.274 HD
ENDBRANCH  67  68
ENDBRANCH  66  67
ENDBRANCH  65  66
ENDBRANCH  64  65
ENDBRANCH  63  64
BRANCH  63  72
ATOM     72  N   LYS B   2       4.541  87.770  58.933  1.00  0.00    -0.346 N 
ATOM     73  H   LYS B   2       4.584  87.785  57.951  1.00  0.00     0.163 HD
ATOM     74  C   LYS B   1       4.631  88.921  59.607  1.00  0.00     0.254 C 
ATOM     75  O   LYS B   1       4.531  88.971  60.837  1.00  0.00    -0.271 OA
BRANCH  74  76
ATOM     76  CA  LYS B   1       4.816  90.169  58.775  1.00  0.00     0.350 C 
BRANCH  76  77
ATOM     77  CB  LYS B   1       3.894  91.313  59.280  1.00  0.00     0.048 C 
BRANCH  77  78
ATOM     78  CG  LYS B   1       4.666  92.599  59.668  1.00  0.00     0.004 C 
BRANCH  78  79
ATOM     79  CD  LYS B   1       6.109  92.370  60.126  1.00  0.00     0.027 C 
BRANCH  79  80
ATOM     80  CE  LYS B   1       6.847  93.716  60.165  1.00  0.00     0.229 C 
BRANCH  80  81
ATOM     81  NZ  LYS B   1       7.978  93.627  61.104  1.00  0.00    -0.079 N 
ATOM     82  HZ1 LYS B   1       8.201  94.552  61.491  1.00  0.00     0.274 HD
ATOM     83  HZ2 LYS B   1       7.753  93.029  61.905  1.00  0.00     0.274 HD
ATOM     84  HZ3 LYS B   1       8.754  93.248  60.579  1.00  0.00     0.274 HD
ENDBRANCH  80  81
ENDBRANCH  79  80
ENDBRANCH  78  79
ENDBRANCH  77  78
ENDBRANCH  76  77
BRANCH  76  85
ATOM     85  N   LYS B   1       4.537  89.905  57.367  1.00  0.00     0.312 N 
ATOM     86  H   LYS B   1       5.255  89.214  56.983  1.00  0.00     0.359 HD
ENDBRANCH  76  85
ENDBRANCH  74  76
ENDBRANCH  63  72
ENDBRANCH  61  63
ENDBRANCH  47  59
ENDBRANCH   1  47
TORSDOF 34
ENDMDL
MODEL 3
REMARK VINA RESULT:      -6.7      2.573      5.263
REMARK WARNING: 32 MAX_TORS EXCEEDED!!!
REMARK  34 active torsions:
REMARK  status: ('A' for Active; 'I' for Inactive)
REMARK    1  A    between atoms: N_1  and  CA_2 
REMARK    2  A    between atoms: CA_2  and  CB_5 
REMARK    3  A    between atoms: CA_2  and  C_3 
REMARK       I    between atoms: C_3  and  N_14 
REMARK    4  A    between atoms: CB_5  and  CG_6 
REMARK    5  A    between atoms: CG_6  and  CD_7 
REMARK    6  A    between atoms: CD_7  and  CE_8 
REMARK    7  A    between atoms: CE_8  and  NZ_9 
REMARK    8  A    between atoms: N_14  and  CA_15 
REMARK    9  A    between atoms: CA_15  and  C_16 
REMARK   10  A    between atoms: CA_15  and  CB_18 
REMARK       I    between atoms: C_16  and  N_40 
REMARK   11  A    between atoms: CB_18  and  CG_19 
REMARK   12  A    between atoms: CG_19  and  CD_20 
REMARK   13  A    between atoms: CD_20  and  CE_21 
REMARK   14  A    between atoms: CE_21  and  NZ_22 
REMARK   15  A    between atoms: CA_27  and  CB_29 
REMARK   16  A    between atoms: CA_27  and  N_40 
REMARK   17  A    between atoms: CA_27  and  C_28 
REMARK       I    between atoms: C_28  and  N_49 
REMARK   18  A    between atoms: CB_29  and  CG_30 
REMARK   19  A    between atoms: CA_43  and  N_49 
REMARK   20  A    between atoms: CA_43  and  CB_45 
REMARK   21  A    between atoms: CA_43  and  C_44 
REMARK       I    between atoms: C_44  and  N_59 
REMARK   22  A    between atoms: CB_45  and  CG_46 
REMARK   23  A    between atoms: CG_46  and  CD_47 
REMARK   24  A    between atoms: CA_53  and  N_59 
REMARK   25  A    between atoms: CA_53  and  C_54 
REMARK   26  A    between atoms: CA_53  and  CB_55 
REMARK       I    between atoms: C_54  and  N_75 
REMARK   27  A    between atoms: CB_55  and  OG1_61 
REMARK   28  A    between atoms: CA_62  and  CB_64 
REMARK   29  A    between atoms: CA_62  and  C_63 
REMARK   30  A    between atoms: CA_62  and  N_75 
REMARK       I    between atoms: C_63  and  N_84 
REMARK   31  A    between atoms: CB_64  and  CG_65 
REMARK   32  A    between atoms: CA_78  and  C_79 
REMARK   33  A    between atoms: CA_78  and  CB_80 
REMARK   34  A    between atoms: CA_78  and  N_84 
ROOT
ATOM      1  C   TRP B   3       2.509  87.821  63.813  1.00  0.00     0.241 C 
ATOM      2  O   TRP B   3       1.547  88.421  64.290  1.00  0.00    -0.271 OA
ATOM      3  H   GLU B   4       4.493  87.719  63.566  1.00  0.23     0.163 HD
ATOM      4  N   GLU B   4       3.764  88.235  63.968  1.00  0.00    -0.346 N 
ENDROOT
BRANCH   4   5
ATOM      5  CA  GLU B   4       4.076  89.446  64.723  1.00  0.00     0.177 C 
BRANCH   5   6
ATOM      6  CB  GLU B   4       4.273  89.120  66.204  1.00  0.00     0.045 C 
BRANCH   6   7
ATOM      7  CG  GLU B   4       4.148  90.332  67.112  1.00  0.00     0.116 C 
BRANCH   7   8
ATOM      8  CD  GLU B   4       2.863  90.331  67.919  1.00  0.00     0.172 C 
ATOM      9  OE1 GLU B   4       2.919  90.651  69.124  1.00  0.00    -0.648 OA
ATOM     10  OE2 GLU B   4       1.802  90.009  67.344  1.00  0.00    -0.648 OA
ENDBRANCH   7   8
ENDBRANCH   6   7
ENDBRANCH   5   6
BRANCH   5  11
ATOM     11  C   GLU B   4       5.330  90.120  64.174  1.00  0.00     0.241 C 
ATOM     12  O   GLU B   4       6.393  89.504  64.092  1.00  0.00    -0.271 OA
ATOM     13  N   THR B   5       5.198  91.391  63.804  1.00  7.70    -0.344 N 
ATOM     14  H   THR B   5       4.324  91.825  63.897  1.00  0.23     0.163 HD
BRANCH  13  15
ATOM     15  CA  THR B   5       6.317  92.158  63.265  1.00  7.88     0.205 C 
BRANCH  15  16
ATOM     16  C   THR B   5       7.241  92.621  64.387  1.00  7.05     0.243 C 
ATOM     17  O   THR B   5       6.815  93.321  65.305  1.00  6.06    -0.271 OA
ATOM     18  N   TRP B   6       8.506  92.224  64.308  1.00  0.00    -0.346 N 
ATOM     19  H   TRP B   6       8.787  91.666  63.553  1.00  0.23     0.163 HD
BRANCH  18  20
ATOM     20  CA  TRP B   6       9.487  92.596  65.319  1.00  0.00     0.181 C 
BRANCH  20  21
ATOM     21  CB  TRP B   6      10.403  91.410  65.627  1.00  0.00     0.075 C 
BRANCH  21  22
ATOM     22  CG  TRP B   6       9.650  90.144  65.897  1.00  0.00    -0.028 A 
ATOM     23  CD2 TRP B   6       8.786  89.883  67.010  1.00  0.00    -0.002 A 
ATOM     24  CE2 TRP B   6       8.290  88.575  66.854  1.00  0.00     0.042 A 
ATOM     25  CE3 TRP B   6       8.386  90.627  68.123  1.00  0.00     0.014 A 
ATOM     26  CZ2 TRP B   6       7.414  87.998  67.768  1.00  0.00     0.030 A 
ATOM     27  NE1 TRP B   6       8.826  88.065  65.699  1.00  0.00    -0.365 N 
ATOM     28  CH2 TRP B   6       7.038  88.748  68.850  1.00  0.00     0.002 A 
ATOM     29  CZ3 TRP B   6       7.515  90.051  69.031  1.00  0.00     0.001 A 
ATOM     30  HE1 TRP B   6       8.656  87.170  65.338  1.00  0.23     0.165 HD
ATOM     31  CD1 TRP B   6       9.642  89.014  65.132  1.00  0.00     0.096 A 
ENDBRANCH  21  22
ENDBRANCH  20  21
BRANCH  20  32
ATOM     32  C   TRP B   6      10.313  93.794  64.863  1.00  0.00     0.241 C 
ATOM     33  N   VAL B   7      11.297  93.534  64.007  1.00  6.11    -0.344 N 
ATOM     34  H   VAL B   7      11.443  92.611  63.715  1.00  0.23     0.163 HD
ATOM     35  O   TRP B   6      10.067  94.926  65.280  1.00  0.00    -0.271 OA
BRANCH  33  36
ATOM     36  CA  VAL B   7      12.164  94.587  63.495  1.00  5.65     0.189 C 
BRANCH  36  37
ATOM     37  C   VAL B   7      11.507  95.325  62.332  1.00  4.44     0.197 C 
ATOM     38  O   VAL B   7      12.092  96.323  61.861  1.00  0.00    -0.646 OA
ATOM     39  OXT VAL B   7      10.415  94.900  61.903  1.00  0.00    -0.646 OA
ENDBRANCH  36  37
BRANCH  36  40
ATOM     40  CB  VAL B   7      13.518  94.017  63.029  1.00  1.15     0.010 C 
ATOM     41  CG1 VAL B   7      14.651  94.968  63.389  1.00  4.96     0.012 C 
ATOM     42  CG2 VAL B   7      13.758  92.641  63.631  1.00  9.83     0.012 C 
ENDBRANCH  36  40
ENDBRANCH  33  36
ENDBRANCH  20  32
ENDBRANCH  18  20
ENDBRANCH  15  16
BRANCH  15  43
ATOM     43  CB  THR B   5       5.802  93.367  62.481  1.00  4.05     0.146 C 
ATOM     44  CG2 THR B   5       5.181  92.996  61.152  1.00  3.72     0.042 C 
BRANCH  43  45
ATOM     45  OG1 THR B   5       4.827  94.071  63.229  1.00  7.31    -0.393 OA
ATOM     46  HG1 THR B   5       5.211  94.878  63.576  1.00  0.23     0.210 HD
ENDBRANCH  43  45
ENDBRANCH  15  43
ENDBRANCH  13  15
ENDBRANCH   5  11
ENDBRANCH   4   5
BRANCH   1  47
ATOM     47  CA  TRP B   3       2.307  86.544  63.003  1.00  0.00     0.181 C 
BRANCH  47  48
ATOM     48  CB  TRP B   3       2.170  85.340  63.946  1.00  0.00     0.075 C 
BRANCH  48  49
ATOM     49  CG  TRP B   3       1.618  84.109  63.289  1.00  0.00    -0.028 A 
ATOM     50  CD1 TRP B   3       0.632  84.056  62.346  1.00  0.00     0.096 A 
ATOM     51  NE1 TRP B   3       0.390  82.751  61.988  1.00  0.00    -0.365 N 
ATOM     52  HE1 TRP B   3      -0.271  82.456  61.327  1.00  0.23     0.165 HD
ATOM     53  CE2 TRP B   3       1.223  81.932  62.704  1.00  0.00     0.042 A 
ATOM     54  CZ2 TRP B   3       1.350  80.545  62.689  1.00  0.00     0.030 A 
ATOM     55  CD2 TRP B   3       2.010  82.753  63.535  1.00  0.00    -0.002 A 
ATOM     56  CH2 TRP B   3       2.280  79.986  63.522  1.00  0.00     0.002 A 
ATOM     57  CZ3 TRP B   3       3.075  80.775  64.361  1.00  0.00     0.001 A 
ATOM     58  CE3 TRP B   3       2.951  82.151  64.377  1.00  0.00     0.014 A 
ENDBRANCH  48  49
ENDBRANCH  47  48
BRANCH  47  59
ATOM     59  N   TRP B   3       3.400  86.345  62.055  1.00  0.00    -0.346 N 
ATOM     60  H   TRP B   3       4.322  86.306  62.389  1.00  0.23     0.163 HD
ATOM     61  C   LYS B   2       3.179  86.213  60.739  1.00  0.00     0.241 C 
ATOM     62  O   LYS B   2       2.052  86.266  60.254  1.00  0.00    -0.271 OA
BRANCH  61  63
ATOM     63  CA  LYS B   2       4.407  86.034  59.877  1.00  0.00     0.176 C 
BRANCH  63  64
ATOM     64  CB  LYS B   2       5.648  85.687  60.744  1.00  0.00     0.035 C 
BRANCH  64  65
ATOM     65  CG  LYS B   2       6.720  84.867  59.984  1.00  0.00     0.004 C 
BRANCH  65  66
ATOM     66  CD  LYS B   2       7.441  85.628  58.868  1.00  0.00     0.027 C 
BRANCH  66  67
ATOM     67  CE  LYS B   2       7.410  84.789  57.583  1.00  0.00     0.229 C 
BRANCH  67  68
ATOM     68  NZ  LYS B   2       6.278  85.222  56.744  1.00  0.00    -0.079 N 
ATOM     69  HZ3 LYS B   2       6.148  86.207  56.928  1.00  0.00     0.274 HD
ATOM     70  HZ2 LYS B   2       5.428  84.693  56.964  1.00  0.00     0.274 HD
ATOM     71  HZ1 LYS B   2       6.475  85.046  55.751  1.00  0.00     0.274 HD
ENDBRANCH  67  68
ENDBRANCH  66  67
ENDBRANCH  65  66
ENDBRANCH  64  65
ENDBRANCH  63  64
BRANCH  63  72
ATOM     72  N   LYS B   2       4.680  87.240  59.100  1.00  0.00    -0.346 N 
ATOM     73  H   LYS B   2       4.697  87.186  58.119  1.00  0.00     0.163 HD
ATOM     74  C   LYS B   1       4.906  88.417  59.692  1.00  0.00     0.254 C 
ATOM     75  O   LYS B   1       4.846  88.558  60.918  1.00  0.00    -0.271 OA
BRANCH  74  76
ATOM     76  CA  LYS B   1       5.194  89.582  58.773  1.00  0.00     0.350 C 
BRANCH  76  77
ATOM     77  CB  LYS B   1       3.883  90.315  58.379  1.00  0.00     0.048 C 
BRANCH  77  78
ATOM     78  CG  LYS B   1       2.602  89.547  58.790  1.00  0.00     0.004 C 
BRANCH  78  79
ATOM     79  CD  LYS B   1       1.502  89.512  57.725  1.00  0.00     0.027 C 
BRANCH  79  80
ATOM     80  CE  LYS B   1       0.780  88.160  57.788  1.00  0.00     0.229 C 
BRANCH  80  81
ATOM     81  NZ  LYS B   1       1.678  87.101  57.296  1.00  0.00    -0.079 N 
ATOM     82  HZ1 LYS B   1       2.658  87.335  57.497  1.00  0.00     0.274 HD
ATOM     83  HZ2 LYS B   1       1.496  86.208  57.766  1.00  0.00     0.274 HD
ATOM     84  HZ3 LYS B   1       1.511  87.025  56.303  1.00  0.00     0.274 HD
ENDBRANCH  80  81
ENDBRANCH  79  80
ENDBRANCH  78  79
ENDBRANCH  77  78
ENDBRANCH  76  77
BRANCH  76  85
ATOM     85  N   LYS B   1       5.886  89.138  57.567  1.00  0.00     0.312 N 
ATOM     86  H   LYS B   1       5.841  89.905  56.826  1.00  0.00     0.359 HD
ENDBRANCH  76  85
ENDBRANCH  74  76
ENDBRANCH  63  72
ENDBRANCH  61  63
ENDBRANCH  47  59
ENDBRANCH   1  47
TORSDOF 34
ENDMDL
MODEL 4
REMARK VINA RESULT:      -5.5      2.132      9.207
REMARK WARNING: 32 MAX_TORS EXCEEDED!!!
REMARK  34 active torsions:
REMARK  status: ('A' for Active; 'I' for Inactive)
REMARK    1  A    between atoms: N_1  and  CA_2 
REMARK    2  A    between atoms: CA_2  and  CB_5 
REMARK    3  A    between atoms: CA_2  and  C_3 
REMARK       I    between atoms: C_3  and  N_14 
REMARK    4  A    between atoms: CB_5  and  CG_6 
REMARK    5  A    between atoms: CG_6  and  CD_7 
REMARK    6  A    between atoms: CD_7  and  CE_8 
REMARK    7  A    between atoms: CE_8  and  NZ_9 
REMARK    8  A    between atoms: N_14  and  CA_15 
REMARK    9  A    between atoms: CA_15  and  C_16 
REMARK   10  A    between atoms: CA_15  and  CB_18 
REMARK       I    between atoms: C_16  and  N_40 
REMARK   11  A    between atoms: CB_18  and  CG_19 
REMARK   12  A    between atoms: CG_19  and  CD_20 
REMARK   13  A    between atoms: CD_20  and  CE_21 
REMARK   14  A    between atoms: CE_21  and  NZ_22 
REMARK   15  A    between atoms: CA_27  and  CB_29 
REMARK   16  A    between atoms: CA_27  and  N_40 
REMARK   17  A    between atoms: CA_27  and  C_28 
REMARK       I    between atoms: C_28  and  N_49 
REMARK   18  A    between atoms: CB_29  and  CG_30 
REMARK   19  A    between atoms: CA_43  and  N_49 
REMARK   20  A    between atoms: CA_43  and  CB_45 
REMARK   21  A    between atoms: CA_43  and  C_44 
REMARK       I    between atoms: C_44  and  N_59 
REMARK   22  A    between atoms: CB_45  and  CG_46 
REMARK   23  A    between atoms: CG_46  and  CD_47 
REMARK   24  A    between atoms: CA_53  and  N_59 
REMARK   25  A    between atoms: CA_53  and  C_54 
REMARK   26  A    between atoms: CA_53  and  CB_55 
REMARK       I    between atoms: C_54  and  N_75 
REMARK   27  A    between atoms: CB_55  and  OG1_61 
REMARK   28  A    between atoms: CA_62  and  CB_64 
REMARK   29  A    between atoms: CA_62  and  C_63 
REMARK   30  A    between atoms: CA_62  and  N_75 
REMARK       I    between atoms: C_63  and  N_84 
REMARK   31  A    between atoms: CB_64  and  CG_65 
REMARK   32  A    between atoms: CA_78  and  C_79 
REMARK   33  A    between atoms: CA_78  and  CB_80 
REMARK   34  A    between atoms: CA_78  and  N_84 
ROOT
ATOM      1  C   TRP B   3       6.733  91.437  66.433  1.00  0.00     0.241 C 
ATOM      2  O   TRP B   3       6.340  92.428  67.047  1.00  0.00    -0.271 OA
ATOM      3  H   GLU B   4       7.640  90.695  64.809  1.00  0.23     0.163 HD
ATOM      4  N   GLU B   4       7.347  91.517  65.256  1.00  0.00    -0.346 N 
ENDROOT
BRANCH   4   5
ATOM      5  CA  GLU B   4       7.593  92.806  64.612  1.00  0.00     0.177 C 
BRANCH   5   6
ATOM      6  CB  GLU B   4       8.993  92.841  63.998  1.00  0.00     0.045 C 
BRANCH   6   7
ATOM      7  CG  GLU B   4      10.050  92.178  64.865  1.00  0.00     0.116 C 
BRANCH   7   8
ATOM      8  CD  GLU B   4      10.678  90.967  64.201  1.00  0.00     0.172 C 
ATOM      9  OE1 GLU B   4      11.856  91.055  63.797  1.00  0.00    -0.648 OA
ATOM     10  OE2 GLU B   4       9.990  89.931  64.085  1.00  0.00    -0.648 OA
ENDBRANCH   7   8
ENDBRANCH   6   7
ENDBRANCH   5   6
BRANCH   5  11
ATOM     11  C   GLU B   4       6.550  93.082  63.534  1.00  0.00     0.241 C 
ATOM     12  O   GLU B   4       5.493  93.652  63.809  1.00  0.00    -0.271 OA
ATOM     13  N   THR B   5       6.853  92.670  62.306  1.00  7.70    -0.344 N 
ATOM     14  H   THR B   5       7.711  92.221  62.154  1.00  0.23     0.163 HD
BRANCH  13  15
ATOM     15  CA  THR B   5       5.946  92.866  61.180  1.00  7.88     0.205 C 
BRANCH  15  16
ATOM     16  C   THR B   5       5.280  91.550  60.790  1.00  7.05     0.243 C 
ATOM     17  O   THR B   5       4.201  91.220  61.282  1.00  6.06    -0.271 OA
ATOM     18  N   TRP B   6       5.928  90.803  59.904  1.00  0.00    -0.346 N 
ATOM     19  H   TRP B   6       6.785  91.119  59.546  1.00  0.23     0.163 HD
BRANCH  18  20
ATOM     20  CA  TRP B   6       5.396  89.525  59.447  1.00  0.00     0.181 C 
BRANCH  20  21
ATOM     21  CB  TRP B   6       5.068  88.632  60.644  1.00  0.00     0.075 C 
BRANCH  21  22
ATOM     22  CG  TRP B   6       5.676  87.267  60.537  1.00  0.00    -0.028 A 
ATOM     23  CD2 TRP B   6       5.181  86.060  61.132  1.00  0.00    -0.002 A 
ATOM     24  CE2 TRP B   6       6.060  85.024  60.763  1.00  0.00     0.042 A 
ATOM     25  CE3 TRP B   6       4.082  85.757  61.940  1.00  0.00     0.014 A 
ATOM     26  CZ2 TRP B   6       5.871  83.708  61.175  1.00  0.00     0.030 A 
ATOM     27  NE1 TRP B   6       7.042  85.575  59.981  1.00  0.00    -0.365 N 
ATOM     28  CH2 TRP B   6       4.788  83.438  61.966  1.00  0.00     0.002 A 
ATOM     29  CZ3 TRP B   6       3.897  84.448  62.348  1.00  0.00     0.001 A 
ATOM     30  HE1 TRP B   6       7.793  85.087  59.581  1.00  0.23     0.165 HD
ATOM     31  CD1 TRP B   6       6.804  86.922  59.851  1.00  0.00     0.096 A 
ENDBRANCH  21  22
ENDBRANCH  20  21
BRANCH  20  32
ATOM     32  C   TRP B   6       4.153  89.729  58.586  1.00  0.00     0.241 C 
ATOM     33  N   VAL B   7       3.147  88.888  58.805  1.00  6.11    -0.344 N 
ATOM     34  H   VAL B   7       3.245  88.195  59.490  1.00  0.23     0.163 HD
ATOM     35  O   TRP B   6       4.110  90.624  57.742  1.00  0.00    -0.271 OA
BRANCH  33  36
ATOM     36  CA  VAL B   7       1.903  88.969  58.050  1.00  5.65     0.189 C 
BRANCH  36  37
ATOM     37  C   VAL B   7       0.887  89.862  58.757  1.00  4.44     0.197 C 
ATOM     38  O   VAL B   7       0.498  90.892  58.168  1.00  0.00    -0.646 OA
ATOM     39  OXT VAL B   7       0.491  89.525  59.891  1.00  0.00    -0.646 OA
ENDBRANCH  36  37
BRANCH  36  40
ATOM     40  CB  VAL B   7       1.286  87.573  57.840  1.00  1.15     0.010 C 
ATOM     41  CG1 VAL B   7       1.022  87.323  56.362  1.00  4.96     0.012 C 
ATOM     42  CG2 VAL B   7       2.190  86.493  58.416  1.00  9.83     0.012 C 
ENDBRANCH  36  40
ENDBRANCH  33  36
ENDBRANCH  20  32
ENDBRANCH  18  20
ENDBRANCH  15  16
BRANCH  15  43
ATOM     43  CB  THR B   5       6.703  93.442  59.982  1.00  4.05     0.146 C 
ATOM     44  CG2 THR B   5       5.987  94.602  59.324  1.00  3.72     0.042 C 
BRANCH  43  45
ATOM     45  OG1 THR B   5       7.987  93.896  60.373  1.00  7.31    -0.393 OA
ATOM     46  HG1 THR B   5       8.643  93.568  59.755  1.00  0.23     0.210 HD
ENDBRANCH  43  45
ENDBRANCH  15  43
ENDBRANCH  13  15
ENDBRANCH   5  11
ENDBRANCH   4   5
BRANCH   1  47
ATOM     47  CA  TRP B   3       6.531  90.037  67.004  1.00  0.00     0.181 C 
BRANCH  47  48
ATOM     48  CB  TRP B   3       7.515  89.057  66.348  1.00  0.00     0.075 C 
BRANCH  48  49
ATOM     49  CG  TRP B   3       8.551  88.511  67.288  1.00  0.00    -0.028 A 
ATOM     50  CD1 TRP B   3       9.778  89.047  67.555  1.00  0.00     0.096 A 
ATOM     51  NE1 TRP B   3      10.449  88.261  68.462  1.00  0.00    -0.365 N 
ATOM     52  HE1 TRP B   3      11.347  88.438  68.812  1.00  0.23     0.165 HD
ATOM     53  CE2 TRP B   3       9.658  87.193  68.795  1.00  0.00     0.042 A 
ATOM     54  CZ2 TRP B   3       9.900  86.135  69.668  1.00  0.00     0.030 A 
ATOM     55  CD2 TRP B   3       8.455  87.317  68.074  1.00  0.00    -0.002 A 
ATOM     56  CH2 TRP B   3       8.916  85.195  69.810  1.00  0.00     0.002 A 
ATOM     57  CZ3 TRP B   3       7.711  85.289  69.105  1.00  0.00     0.001 A 
ATOM     58  CE3 TRP B   3       7.469  86.339  68.239  1.00  0.00     0.014 A 
ENDBRANCH  48  49
ENDBRANCH  47  48
BRANCH  47  59
ATOM     59  N   TRP B   3       5.152  89.591  66.827  1.00  0.00    -0.346 N 
ATOM     60  H   TRP B   3       4.696  89.769  65.977  1.00  0.23     0.163 HD
ATOM     61  C   LYS B   2       4.489  88.943  67.796  1.00  0.00     0.241 C 
ATOM     62  O   LYS B   2       4.995  88.701  68.888  1.00  0.00    -0.271 OA
BRANCH  61  63
ATOM     63  CA  LYS B   2       3.061  88.562  67.479  1.00  0.00     0.176 C 
BRANCH  63  64
ATOM     64  CB  LYS B   2       2.087  89.120  68.551  1.00  0.00     0.035 C 
BRANCH  64  65
ATOM     65  CG  LYS B   2       2.201  90.653  68.749  1.00  0.00     0.004 C 
BRANCH  65  66
ATOM     66  CD  LYS B   2       0.934  91.442  68.409  1.00  0.00     0.027 C 
BRANCH  66  67
ATOM     67  CE  LYS B   2       0.585  92.368  69.583  1.00  0.00     0.229 C 
BRANCH  67  68
ATOM     68  NZ  LYS B   2       1.468  92.065  70.724  1.00  0.00    -0.079 N 
ATOM     69  HZ3 LYS B   2       1.916  91.185  70.511  1.00  0.00     0.274 HD
ATOM     70  HZ2 LYS B   2       0.937  92.002  71.599  1.00  0.00     0.274 HD
ATOM     71  HZ1 LYS B   2       2.155  92.816  70.860  1.00  0.00     0.274 HD
ENDBRANCH  67  68
ENDBRANCH  66  67
ENDBRANCH  65  66
ENDBRANCH  64  65
ENDBRANCH  63  64
BRANCH  63  72
ATOM     72  N   LYS B   2       2.914  87.111  67.397  1.00  0.00    -0.346 N 
ATOM     73  H   LYS B   2       3.325  86.547  68.089  1.00  0.00     0.163 HD
ATOM     74  C   LYS B   1       2.233  86.533  66.404  1.00  0.00     0.254 C 
ATOM     75  O   LYS B   1       1.651  87.193  65.536  1.00  0.00    -0.271 OA
BRANCH  74  76
ATOM     76  CA  LYS B   1       2.171  85.024  66.426  1.00  0.00     0.350 C 
BRANCH  76  77
ATOM     77  CB  LYS B   1       1.431  84.480  65.174  1.00  0.00     0.048 C 
BRANCH  77  78
ATOM     78  CG  LYS B   1       1.353  82.933  65.128  1.00  0.00     0.004 C 
BRANCH  78  79
ATOM     79  CD  LYS B   1       2.702  82.225  64.976  1.00  0.00     0.027 C 
BRANCH  79  80
ATOM     80  CE  LYS B   1       2.525  80.983  64.092  1.00  0.00     0.229 C 
BRANCH  80  81
ATOM     81  NZ  LYS B   1       1.825  81.361  62.852  1.00  0.00    -0.079 N 
ATOM     82  HZ1 LYS B   1       1.601  80.528  62.294  1.00  0.00     0.274 HD
ATOM     83  HZ2 LYS B   1       0.930  81.819  63.052  1.00  0.00     0.274 HD
ATOM     84  HZ3 LYS B   1       2.445  81.985  62.354  1.00  0.00     0.274 HD
ENDBRANCH  80  81
ENDBRANCH  79  80
ENDBRANCH  78  79
ENDBRANCH  77  78
ENDBRANCH  76  77
BRANCH  76  85
ATOM     85  N   LYS B   1       1.502  84.545  67.632  1.00  0.00     0.312 N 
ATOM     86  H   LYS B   1       2.098  84.778  68.487  1.00  0.00     0.359 HD
ENDBRANCH  76  85
ENDBRANCH  74  76
ENDBRANCH  63  72
ENDBRANCH  61  63
ENDBRANCH  47  59
ENDBRANCH   1  47
TORSDOF 34
ENDMDL
MODEL 5
REMARK VINA RESULT:      -5.4      2.784      7.551
REMARK WARNING: 32 MAX_TORS EXCEEDED!!!
REMARK  34 active torsions:
REMARK  status: ('A' for Active; 'I' for Inactive)
REMARK    1  A    between atoms: N_1  and  CA_2 
REMARK    2  A    between atoms: CA_2  and  CB_5 
REMARK    3  A    between atoms: CA_2  and  C_3 
REMARK       I    between atoms: C_3  and  N_14 
REMARK    4  A    between atoms: CB_5  and  CG_6 
REMARK    5  A    between atoms: CG_6  and  CD_7 
REMARK    6  A    between atoms: CD_7  and  CE_8 
REMARK    7  A    between atoms: CE_8  and  NZ_9 
REMARK    8  A    between atoms: N_14  and  CA_15 
REMARK    9  A    between atoms: CA_15  and  C_16 
REMARK   10  A    between atoms: CA_15  and  CB_18 
REMARK       I    between atoms: C_16  and  N_40 
REMARK   11  A    between atoms: CB_18  and  CG_19 
REMARK   12  A    between atoms: CG_19  and  CD_20 
REMARK   13  A    between atoms: CD_20  and  CE_21 
REMARK   14  A    between atoms: CE_21  and  NZ_22 
REMARK   15  A    between atoms: CA_27  and  CB_29 
REMARK   16  A    between atoms: CA_27  and  N_40 
REMARK   17  A    between atoms: CA_27  and  C_28 
REMARK       I    between atoms: C_28  and  N_49 
REMARK   18  A    between atoms: CB_29  and  CG_30 
REMARK   19  A    between atoms: CA_43  and  N_49 
REMARK   20  A    between atoms: CA_43  and  CB_45 
REMARK   21  A    between atoms: CA_43  and  C_44 
REMARK       I    between atoms: C_44  and  N_59 
REMARK   22  A    between atoms: CB_45  and  CG_46 
REMARK   23  A    between atoms: CG_46  and  CD_47 
REMARK   24  A    between atoms: CA_53  and  N_59 
REMARK   25  A    between atoms: CA_53  and  C_54 
REMARK   26  A    between atoms: CA_53  and  CB_55 
REMARK       I    between atoms: C_54  and  N_75 
REMARK   27  A    between atoms: CB_55  and  OG1_61 
REMARK   28  A    between atoms: CA_62  and  CB_64 
REMARK   29  A    between atoms: CA_62  and  C_63 
REMARK   30  A    between atoms: CA_62  and  N_75 
REMARK       I    between atoms: C_63  and  N_84 
REMARK   31  A    between atoms: CB_64  and  CG_65 
REMARK   32  A    between atoms: CA_78  and  C_79 
REMARK   33  A    between atoms: CA_78  and  CB_80 
REMARK   34  A    between atoms: CA_78  and  N_84 
ROOT
ATOM      1  C   TRP B   3       1.491  84.463  67.882  1.00  0.00     0.241 C 
ATOM      2  O   TRP B   3       1.086  84.676  69.024  1.00  0.00    -0.271 OA
ATOM      3  H   GLU B   4       2.543  85.110  66.307  1.00  0.23     0.163 HD
ATOM      4  N   GLU B   4       2.248  85.330  67.215  1.00  0.00    -0.346 N 
ENDROOT
BRANCH   4   5
ATOM      5  CA  GLU B   4       2.647  86.604  67.808  1.00  0.00     0.177 C 
BRANCH   5   6
ATOM      6  CB  GLU B   4       4.140  86.597  68.142  1.00  0.00     0.045 C 
BRANCH   6   7
ATOM      7  CG  GLU B   4       4.427  86.777  69.624  1.00  0.00     0.116 C 
BRANCH   7   8
ATOM      8  CD  GLU B   4       5.132  88.085  69.929  1.00  0.00     0.172 C 
ATOM      9  OE1 GLU B   4       4.590  89.150  69.568  1.00  0.00    -0.648 OA
ATOM     10  OE2 GLU B   4       6.227  88.043  70.529  1.00  0.00    -0.648 OA
ENDBRANCH   7   8
ENDBRANCH   6   7
ENDBRANCH   5   6
BRANCH   5  11
ATOM     11  C   GLU B   4       2.337  87.763  66.864  1.00  0.00     0.241 C 
ATOM     12  O   GLU B   4       1.505  87.638  65.965  1.00  0.00    -0.271 OA
ATOM     13  N   THR B   5       3.016  88.887  67.074  1.00  7.70    -0.344 N 
ATOM     14  H   THR B   5       3.667  88.920  67.807  1.00  0.23     0.163 HD
BRANCH  13  15
ATOM     15  CA  THR B   5       2.822  90.073  66.245  1.00  7.88     0.205 C 
BRANCH  15  16
ATOM     16  C   THR B   5       4.087  90.387  65.453  1.00  7.05     0.243 C 
ATOM     17  O   THR B   5       4.840  89.485  65.084  1.00  6.06    -0.271 OA
ATOM     18  N   TRP B   6       4.314  91.669  65.191  1.00  0.00    -0.346 N 
ATOM     19  H   TRP B   6       3.678  92.343  65.510  1.00  0.23     0.163 HD
BRANCH  18  20
ATOM     20  CA  TRP B   6       5.486  92.100  64.439  1.00  0.00     0.181 C 
BRANCH  20  21
ATOM     21  CB  TRP B   6       5.187  93.402  63.695  1.00  0.00     0.075 C 
BRANCH  21  22
ATOM     22  CG  TRP B   6       4.799  93.181  62.265  1.00  0.00    -0.028 A 
ATOM     23  CD2 TRP B   6       4.916  91.961  61.524  1.00  0.00    -0.002 A 
ATOM     24  CE2 TRP B   6       4.427  92.211  60.228  1.00  0.00     0.042 A 
ATOM     25  CE3 TRP B   6       5.389  90.682  61.831  1.00  0.00     0.014 A 
ATOM     26  CZ2 TRP B   6       4.396  91.229  59.242  1.00  0.00     0.030 A 
ATOM     27  NE1 TRP B   6       4.030  93.523  60.184  1.00  0.00    -0.365 N 
ATOM     28  CH2 TRP B   6       4.865  89.986  59.568  1.00  0.00     0.002 A 
ATOM     29  CZ3 TRP B   6       5.358  89.708  60.849  1.00  0.00     0.001 A 
ATOM     30  HE1 TRP B   6       3.646  93.977  59.404  1.00  0.23     0.165 HD
ATOM     31  CD1 TRP B   6       4.257  94.098  61.411  1.00  0.00     0.096 A 
ENDBRANCH  21  22
ENDBRANCH  20  21
BRANCH  20  32
ATOM     32  C   TRP B   6       6.688  92.285  65.361  1.00  0.00     0.241 C 
ATOM     33  N   VAL B   7       7.588  91.306  65.351  1.00  6.11    -0.344 N 
ATOM     34  H   VAL B   7       7.445  90.533  64.768  1.00  0.23     0.163 HD
ATOM     35  O   TRP B   6       6.793  93.288  66.066  1.00  0.00    -0.271 OA
BRANCH  33  36
ATOM     36  CA  VAL B   7       8.781  91.356  66.186  1.00  5.65     0.189 C 
BRANCH  36  37
ATOM     37  C   VAL B   7      10.048  91.236  65.344  1.00  4.44     0.197 C 
ATOM     38  O   VAL B   7      10.931  92.108  65.481  1.00  0.00    -0.646 OA
ATOM     39  OXT VAL B   7      10.146  90.274  64.556  1.00  0.00    -0.646 OA
ENDBRANCH  36  37
BRANCH  36  40
ATOM     40  CB  VAL B   7       8.770  90.232  67.241  1.00  1.15     0.010 C 
ATOM     41  CG1 VAL B   7      10.152  90.060  67.853  1.00  4.96     0.012 C 
ATOM     42  CG2 VAL B   7       7.734  90.517  68.319  1.00  9.83     0.012 C 
ENDBRANCH  36  40
ENDBRANCH  33  36
ENDBRANCH  20  32
ENDBRANCH  18  20
ENDBRANCH  15  16
BRANCH  15  43
ATOM     43  CB  THR B   5       2.440  91.272  67.114  1.00  4.05     0.146 C 
ATOM     44  CG2 THR B   5       1.057  91.809  66.815  1.00  3.72     0.042 C 
BRANCH  43  45
ATOM     45  OG1 THR B   5       2.478  90.927  68.487  1.00  7.31    -0.393 OA
ATOM     46  HG1 THR B   5       1.668  90.470  68.725  1.00  0.23     0.210 HD
ENDBRANCH  43  45
ENDBRANCH  15  43
ENDBRANCH  13  15
ENDBRANCH   5  11
ENDBRANCH   4   5
BRANCH   1  47
ATOM     47  CA  TRP B   3       1.137  83.168  67.159  1.00  0.00     0.181 C 
BRANCH  47  48
ATOM     48  CB  TRP B   3       1.385  81.966  68.082  1.00  0.00     0.075 C 
BRANCH  48  49
ATOM     49  CG  TRP B   3       2.672  81.243  67.812  1.00  0.00    -0.028 A 
ATOM     50  CD1 TRP B   3       2.870  80.230  66.918  1.00  0.00     0.096 A 
ATOM     51  NE1 TRP B   3       4.180  79.814  66.958  1.00  0.00    -0.365 N 
ATOM     52  HE1 TRP B   3       4.567  79.101  66.407  1.00  0.23     0.165 HD
ATOM     53  CE2 TRP B   3       4.854  80.559  67.889  1.00  0.00     0.042 A 
ATOM     54  CZ2 TRP B   3       6.189  80.509  68.283  1.00  0.00     0.030 A 
ATOM     55  CD2 TRP B   3       3.936  81.468  68.448  1.00  0.00    -0.002 A 
ATOM     56  CH2 TRP B   3       6.596  81.386  69.251  1.00  0.00     0.002 A 
ATOM     57  CZ3 TRP B   3       5.707  82.300  69.827  1.00  0.00     0.001 A 
ATOM     58  CE3 TRP B   3       4.382  82.351  69.437  1.00  0.00     0.014 A 
ENDBRANCH  48  49
ENDBRANCH  47  48
BRANCH  47  59
ATOM     59  N   TRP B   3       1.891  83.037  65.915  1.00  0.00    -0.346 N 
ATOM     60  H   TRP B   3       2.842  82.800  65.955  1.00  0.23     0.163 HD
ATOM     61  C   LYS B   2       1.320  83.233  64.718  1.00  0.00     0.241 C 
ATOM     62  O   LYS B   2       0.138  83.546  64.598  1.00  0.00    -0.271 OA
BRANCH  61  63
ATOM     63  CA  LYS B   2       2.228  83.085  63.520  1.00  0.00     0.176 C 
BRANCH  63  64
ATOM     64  CB  LYS B   2       3.282  81.969  63.757  1.00  0.00     0.035 C 
BRANCH  64  65
ATOM     65  CG  LYS B   2       2.746  80.544  63.469  1.00  0.00     0.004 C 
BRANCH  65  66
ATOM     66  CD  LYS B   2       1.468  80.495  62.628  1.00  0.00     0.027 C 
BRANCH  66  67
ATOM     67  CE  LYS B   2       0.430  79.614  63.337  1.00  0.00     0.229 C 
BRANCH  67  68
ATOM     68  NZ  LYS B   2       0.059  80.233  64.622  1.00  0.00    -0.079 N 
ATOM     69  HZ3 LYS B   2      -0.303  79.489  65.202  1.00  0.00     0.274 HD
ATOM     70  HZ2 LYS B   2      -0.644  80.969  64.491  1.00  0.00     0.274 HD
ATOM     71  HZ1 LYS B   2       0.872  80.688  65.053  1.00  0.00     0.274 HD
ENDBRANCH  67  68
ENDBRANCH  66  67
ENDBRANCH  65  66
ENDBRANCH  64  65
ENDBRANCH  63  64
BRANCH  63  72
ATOM     72  N   LYS B   2       2.910  84.341  63.223  1.00  0.00    -0.346 N 
ATOM     73  H   LYS B   2       3.709  84.589  63.740  1.00  0.00     0.163 HD
ATOM     74  C   LYS B   1       2.475  85.163  62.263  1.00  0.00     0.254 C 
ATOM     75  O   LYS B   1       1.509  84.881  61.546  1.00  0.00    -0.271 OA
BRANCH  74  76
ATOM     76  CA  LYS B   1       3.260  86.440  62.070  1.00  0.00     0.350 C 
BRANCH  76  77
ATOM     77  CB  LYS B   1       4.753  86.133  61.773  1.00  0.00     0.048 C 
BRANCH  77  78
ATOM     78  CG  LYS B   1       5.051  85.930  60.266  1.00  0.00     0.004 C 
BRANCH  78  79
ATOM     79  CD  LYS B   1       6.523  85.671  59.931  1.00  0.00     0.027 C 
BRANCH  79  80
ATOM     80  CE  LYS B   1       7.050  86.813  59.051  1.00  0.00     0.229 C 
BRANCH  80  81
ATOM     81  NZ  LYS B   1       6.573  86.628  57.670  1.00  0.00    -0.079 N 
ATOM     82  HZ1 LYS B   1       7.216  86.026  57.142  1.00  0.00     0.274 HD
ATOM     83  HZ2 LYS B   1       5.662  86.158  57.649  1.00  0.00     0.274 HD
ATOM     84  HZ3 LYS B   1       6.511  87.551  57.264  1.00  0.00     0.274 HD
ENDBRANCH  80  81
ENDBRANCH  79  80
ENDBRANCH  78  79
ENDBRANCH  77  78
ENDBRANCH  76  77
BRANCH  76  85
ATOM     85  N   LYS B   1       3.164  87.296  63.249  1.00  0.00     0.312 N 
ATOM     86  H   LYS B   1       4.033  87.912  63.314  1.00  0.00     0.359 HD
ENDBRANCH  76  85
ENDBRANCH  74  76
ENDBRANCH  63  72
ENDBRANCH  61  63
ENDBRANCH  47  59
ENDBRANCH   1  47
TORSDOF 34
ENDMDL
MODEL 6
REMARK VINA RESULT:      -5.2      2.126      9.235
REMARK WARNING: 32 MAX_TORS EXCEEDED!!!
REMARK  34 active torsions:
REMARK  status: ('A' for Active; 'I' for Inactive)
REMARK    1  A    between atoms: N_1  and  CA_2 
REMARK    2  A    between atoms: CA_2  and  CB_5 
REMARK    3  A    between atoms: CA_2  and  C_3 
REMARK       I    between atoms: C_3  and  N_14 
REMARK    4  A    between atoms: CB_5  and  CG_6 
REMARK    5  A    between atoms: CG_6  and  CD_7 
REMARK    6  A    between atoms: CD_7  and  CE_8 
REMARK    7  A    between atoms: CE_8  and  NZ_9 
REMARK    8  A    between atoms: N_14  and  CA_15 
REMARK    9  A    between atoms: CA_15  and  C_16 
REMARK   10  A    between atoms: CA_15  and  CB_18 
REMARK       I    between atoms: C_16  and  N_40 
REMARK   11  A    between atoms: CB_18  and  CG_19 
REMARK   12  A    between atoms: CG_19  and  CD_20 
REMARK   13  A    between atoms: CD_20  and  CE_21 
REMARK   14  A    between atoms: CE_21  and  NZ_22 
REMARK   15  A    between atoms: CA_27  and  CB_29 
REMARK   16  A    between atoms: CA_27  and  N_40 
REMARK   17  A    between atoms: CA_27  and  C_28 
REMARK       I    between atoms: C_28  and  N_49 
REMARK   18  A    between atoms: CB_29  and  CG_30 
REMARK   19  A    between atoms: CA_43  and  N_49 
REMARK   20  A    between atoms: CA_43  and  CB_45 
REMARK   21  A    between atoms: CA_43  and  C_44 
REMARK       I    between atoms: C_44  and  N_59 
REMARK   22  A    between atoms: CB_45  and  CG_46 
REMARK   23  A    between atoms: CG_46  and  CD_47 
REMARK   24  A    between atoms: CA_53  and  N_59 
REMARK   25  A    between atoms: CA_53  and  C_54 
REMARK   26  A    between atoms: CA_53  and  CB_55 
REMARK       I    between atoms: C_54  and  N_75 
REMARK   27  A    between atoms: CB_55  and  OG1_61 
REMARK   28  A    between atoms: CA_62  and  CB_64 
REMARK   29  A    between atoms: CA_62  and  C_63 
REMARK   30  A    between atoms: CA_62  and  N_75 
REMARK       I    between atoms: C_63  and  N_84 
REMARK   31  A    between atoms: CB_64  and  CG_65 
REMARK   32  A    between atoms: CA_78  and  C_79 
REMARK   33  A    between atoms: CA_78  and  CB_80 
REMARK   34  A    between atoms: CA_78  and  N_84 
ROOT
ATOM      1  C   TRP B   3       5.708  90.979  66.407  1.00  0.00     0.241 C 
ATOM      2  O   TRP B   3       4.872  91.722  66.918  1.00  0.00    -0.271 OA
ATOM      3  H   GLU B   4       7.197  90.754  65.087  1.00  0.23     0.163 HD
ATOM      4  N   GLU B   4       6.551  91.387  65.461  1.00  0.00    -0.346 N 
ENDROOT
BRANCH   4   5
ATOM      5  CA  GLU B   4       6.529  92.762  64.967  1.00  0.00     0.177 C 
BRANCH   5   6
ATOM      6  CB  GLU B   4       7.951  93.313  64.851  1.00  0.00     0.045 C 
BRANCH   6   7
ATOM      7  CG  GLU B   4       9.022  92.309  65.246  1.00  0.00     0.116 C 
BRANCH   7   8
ATOM      8  CD  GLU B   4       9.630  91.599  64.051  1.00  0.00     0.172 C 
ATOM      9  OE1 GLU B   4      10.797  91.892  63.719  1.00  0.00    -0.648 OA
ATOM     10  OE2 GLU B   4       8.938  90.752  63.450  1.00  0.00    -0.648 OA
ENDBRANCH   7   8
ENDBRANCH   6   7
ENDBRANCH   5   6
BRANCH   5  11
ATOM     11  C   GLU B   4       5.834  92.842  63.611  1.00  0.00     0.241 C 
ATOM     12  O   GLU B   4       4.610  92.955  63.536  1.00  0.00    -0.271 OA
ATOM     13  N   THR B   5       6.624  92.776  62.543  1.00  7.70    -0.344 N 
ATOM     14  H   THR B   5       7.591  92.684  62.672  1.00  0.23     0.163 HD
BRANCH  13  15
ATOM     15  CA  THR B   5       6.092  92.836  61.185  1.00  7.88     0.205 C 
BRANCH  15  16
ATOM     16  C   THR B   5       5.835  91.432  60.646  1.00  7.05     0.243 C 
ATOM     17  O   THR B   5       6.608  90.916  59.839  1.00  6.06    -0.271 OA
ATOM     18  N   TRP B   6       4.748  90.818  61.099  1.00  0.00    -0.346 N 
ATOM     19  H   TRP B   6       4.171  91.280  61.743  1.00  0.23     0.163 HD
BRANCH  18  20
ATOM     20  CA  TRP B   6       4.394  89.473  60.664  1.00  0.00     0.181 C 
BRANCH  20  21
ATOM     21  CB  TRP B   6       5.036  88.435  61.585  1.00  0.00     0.075 C 
BRANCH  21  22
ATOM     22  CG  TRP B   6       6.201  87.736  60.953  1.00  0.00    -0.028 A 
ATOM     23  CD2 TRP B   6       6.158  86.833  59.841  1.00  0.00    -0.002 A 
ATOM     24  CE2 TRP B   6       7.481  86.426  59.584  1.00  0.00     0.042 A 
ATOM     25  CE3 TRP B   6       5.130  86.331  59.039  1.00  0.00     0.014 A 
ATOM     26  CZ2 TRP B   6       7.800  85.540  58.559  1.00  0.00     0.030 A 
ATOM     27  NE1 TRP B   6       8.290  87.051  60.497  1.00  0.00    -0.365 N 
ATOM     28  CH2 TRP B   6       6.774  85.063  57.789  1.00  0.00     0.002 A 
ATOM     29  CZ3 TRP B   6       5.449  85.451  58.021  1.00  0.00     0.001 A 
ATOM     30  HE1 TRP B   6       9.263  86.954  60.557  1.00  0.23     0.165 HD
ATOM     31  CD1 TRP B   6       7.513  87.835  61.316  1.00  0.00     0.096 A 
ENDBRANCH  21  22
ENDBRANCH  20  21
BRANCH  20  32
ATOM     32  C   TRP B   6       2.880  89.289  60.640  1.00  0.00     0.241 C 
ATOM     33  N   VAL B   7       2.389  88.374  61.470  1.00  6.11    -0.344 N 
ATOM     34  H   VAL B   7       3.003  87.873  62.045  1.00  0.23     0.163 HD
ATOM     35  O   TRP B   6       2.175  89.959  59.885  1.00  0.00    -0.271 OA
BRANCH  33  36
ATOM     36  CA  VAL B   7       0.960  88.096  61.545  1.00  5.65     0.189 C 
BRANCH  36  37
ATOM     37  C   VAL B   7       0.474  88.096  62.991  1.00  4.44     0.197 C 
ATOM     38  O   VAL B   7       0.156  89.190  63.505  1.00  0.00    -0.646 OA
ATOM     39  OXT VAL B   7       0.415  87.007  63.596  1.00  0.00    -0.646 OA
ENDBRANCH  36  37
BRANCH  36  40
ATOM     40  CB  VAL B   7       0.623  86.736  60.900  1.00  1.15     0.010 C 
ATOM     41  CG1 VAL B   7      -0.022  86.937  59.536  1.00  4.96     0.012 C 
ATOM     42  CG2 VAL B   7       1.869  85.871  60.786  1.00  9.83     0.012 C 
ENDBRANCH  36  40
ENDBRANCH  33  36
ENDBRANCH  20  32
ENDBRANCH  18  20
ENDBRANCH  15  16
BRANCH  15  43
ATOM     43  CB  THR B   5       7.065  93.577  60.266  1.00  4.05     0.146 C 
ATOM     44  CG2 THR B   5       6.436  94.757  59.557  1.00  3.72     0.042 C 
BRANCH  43  45
ATOM     45  OG1 THR B   5       8.177  94.061  61.000  1.00  7.31    -0.393 OA
ATOM     46  HG1 THR B   5       8.195  93.644  61.864  1.00  0.23     0.210 HD
ENDBRANCH  43  45
ENDBRANCH  15  43
ENDBRANCH  13  15
ENDBRANCH   5  11
ENDBRANCH   4   5
BRANCH   1  47
ATOM     47  CA  TRP B   3       5.824  89.520  66.839  1.00  0.00     0.181 C 
BRANCH  47  48
ATOM     48  CB  TRP B   3       6.884  88.804  65.990  1.00  0.00     0.075 C 
BRANCH  48  49
ATOM     49  CG  TRP B   3       7.922  88.077  66.794  1.00  0.00    -0.028 A 
ATOM     50  CD1 TRP B   3       8.568  86.925  66.447  1.00  0.00     0.096 A 
ATOM     51  NE1 TRP B   3       9.445  86.557  67.441  1.00  0.00    -0.365 N 
ATOM     52  HE1 TRP B   3      10.024  85.767  67.423  1.00  0.23     0.165 HD
ATOM     53  CE2 TRP B   3       9.376  87.476  68.456  1.00  0.00     0.042 A 
ATOM     54  CZ2 TRP B   3      10.067  87.532  69.664  1.00  0.00     0.030 A 
ATOM     55  CD2 TRP B   3       8.426  88.447  68.083  1.00  0.00    -0.002 A 
ATOM     56  CH2 TRP B   3       9.794  88.579  70.500  1.00  0.00     0.002 A 
ATOM     57  CZ3 TRP B   3       8.854  89.559  70.159  1.00  0.00     0.001 A 
ATOM     58  CE3 TRP B   3       8.168  89.504  68.961  1.00  0.00     0.014 A 
ENDBRANCH  48  49
ENDBRANCH  47  48
BRANCH  47  59
ATOM     59  N   TRP B   3       4.534  88.842  66.751  1.00  0.00    -0.346 N 
ATOM     60  H   TRP B   3       3.938  89.045  65.999  1.00  0.23     0.163 HD
ATOM     61  C   LYS B   2       4.142  87.947  67.669  1.00  0.00     0.241 C 
ATOM     62  O   LYS B   2       4.834  87.658  68.642  1.00  0.00    -0.271 OA
BRANCH  61  63
ATOM     63  CA  LYS B   2       2.774  87.341  67.459  1.00  0.00     0.176 C 
BRANCH  63  64
ATOM     64  CB  LYS B   2       1.798  87.768  68.588  1.00  0.00     0.035 C 
BRANCH  64  65
ATOM     65  CG  LYS B   2       1.839  89.286  68.896  1.00  0.00     0.004 C 
BRANCH  65  66
ATOM     66  CD  LYS B   2       0.671  90.092  68.321  1.00  0.00     0.027 C 
BRANCH  66  67
ATOM     67  CE  LYS B   2       0.488  89.730  66.840  1.00  0.00     0.229 C 
BRANCH  67  68
ATOM     68  NZ  LYS B   2      -0.019  90.905  66.109  1.00  0.00    -0.079 N 
ATOM     69  HZ3 LYS B   2       0.626  91.066  65.349  1.00  0.00     0.274 HD
ATOM     70  HZ2 LYS B   2      -0.078  91.727  66.720  1.00  0.00     0.274 HD
ATOM     71  HZ1 LYS B   2      -0.973  90.735  65.767  1.00  0.00     0.274 HD
ENDBRANCH  67  68
ENDBRANCH  66  67
ENDBRANCH  65  66
ENDBRANCH  64  65
ENDBRANCH  63  64
BRANCH  63  72
ATOM     72  N   LYS B   2       2.850  85.884  67.408  1.00  0.00    -0.346 N 
ATOM     73  H   LYS B   2       3.651  85.432  67.756  1.00  0.00     0.163 HD
ATOM     74  C   LYS B   1       1.855  85.149  66.901  1.00  0.00     0.254 C 
ATOM     75  O   LYS B   1       0.803  85.657  66.499  1.00  0.00    -0.271 OA
BRANCH  74  76
ATOM     76  CA  LYS B   1       2.068  83.653  66.892  1.00  0.00     0.350 C 
BRANCH  76  77
ATOM     77  CB  LYS B   1       1.603  83.036  65.544  1.00  0.00     0.048 C 
BRANCH  77  78
ATOM     78  CG  LYS B   1       2.443  83.505  64.330  1.00  0.00     0.004 C 
BRANCH  78  79
ATOM     79  CD  LYS B   1       3.039  82.376  63.485  1.00  0.00     0.027 C 
BRANCH  79  80
ATOM     80  CE  LYS B   1       1.902  81.524  62.904  1.00  0.00     0.229 C 
BRANCH  80  81
ATOM     81  NZ  LYS B   1       1.047  82.365  62.049  1.00  0.00    -0.079 N 
ATOM     82  HZ1 LYS B   1       0.080  82.021  62.053  1.00  0.00     0.274 HD
ATOM     83  HZ2 LYS B   1       1.008  83.330  62.394  1.00  0.00     0.274 HD
ATOM     84  HZ3 LYS B   1       1.450  82.330  61.123  1.00  0.00     0.274 HD
ENDBRANCH  80  81
ENDBRANCH  79  80
ENDBRANCH  78  79
ENDBRANCH  77  78
ENDBRANCH  76  77
BRANCH  76  85
ATOM     85  N   LYS B   1       1.351  83.016  67.992  1.00  0.00     0.312 N 
ATOM     86  H   LYS B   1       1.999  82.923  68.835  1.00  0.00     0.359 HD
ENDBRANCH  76  85
ENDBRANCH  74  76
ENDBRANCH  63  72
ENDBRANCH  61  63
ENDBRANCH  47  59
ENDBRANCH   1  47
TORSDOF 34
ENDMDL
MODEL 7
REMARK VINA RESULT:      -4.5      2.512      9.237
REMARK WARNING: 32 MAX_TORS EXCEEDED!!!
REMARK  34 active torsions:
REMARK  status: ('A' for Active; 'I' for Inactive)
REMARK    1  A    between atoms: N_1  and  CA_2 
REMARK    2  A    between atoms: CA_2  and  CB_5 
REMARK    3  A    between atoms: CA_2  and  C_3 
REMARK       I    between atoms: C_3  and  N_14 
REMARK    4  A    between atoms: CB_5  and  CG_6 
REMARK    5  A    between atoms: CG_6  and  CD_7 
REMARK    6  A    between atoms: CD_7  and  CE_8 
REMARK    7  A    between atoms: CE_8  and  NZ_9 
REMARK    8  A    between atoms: N_14  and  CA_15 
REMARK    9  A    between atoms: CA_15  and  C_16 
REMARK   10  A    between atoms: CA_15  and  CB_18 
REMARK       I    between atoms: C_16  and  N_40 
REMARK   11  A    between atoms: CB_18  and  CG_19 
REMARK   12  A    between atoms: CG_19  and  CD_20 
REMARK   13  A    between atoms: CD_20  and  CE_21 
REMARK   14  A    between atoms: CE_21  and  NZ_22 
REMARK   15  A    between atoms: CA_27  and  CB_29 
REMARK   16  A    between atoms: CA_27  and  N_40 
REMARK   17  A    between atoms: CA_27  and  C_28 
REMARK       I    between atoms: C_28  and  N_49 
REMARK   18  A    between atoms: CB_29  and  CG_30 
REMARK   19  A    between atoms: CA_43  and  N_49 
REMARK   20  A    between atoms: CA_43  and  CB_45 
REMARK   21  A    between atoms: CA_43  and  C_44 
REMARK       I    between atoms: C_44  and  N_59 
REMARK   22  A    between atoms: CB_45  and  CG_46 
REMARK   23  A    between atoms: CG_46  and  CD_47 
REMARK   24  A    between atoms: CA_53  and  N_59 
REMARK   25  A    between atoms: CA_53  and  C_54 
REMARK   26  A    between atoms: CA_53  and  CB_55 
REMARK       I    between atoms: C_54  and  N_75 
REMARK   27  A    between atoms: CB_55  and  OG1_61 
REMARK   28  A    between atoms: CA_62  and  CB_64 
REMARK   29  A    between atoms: CA_62  and  C_63 
REMARK   30  A    between atoms: CA_62  and  N_75 
REMARK       I    between atoms: C_63  and  N_84 
REMARK   31  A    between atoms: CB_64  and  CG_65 
REMARK   32  A    between atoms: CA_78  and  C_79 
REMARK   33  A    between atoms: CA_78  and  CB_80 
REMARK   34  A    between atoms: CA_78  and  N_84 
ROOT
ATOM      1  C   TRP B   3       6.008  89.761  67.927  1.00  0.00     0.241 C 
ATOM      2  O   TRP B   3       5.847  90.485  68.908  1.00  0.00    -0.271 OA
ATOM      3  H   GLU B   4       6.484  89.611  65.987  1.00  0.23     0.163 HD
ATOM      4  N   GLU B   4       6.370  90.232  66.737  1.00  0.00    -0.346 N 
ENDROOT
BRANCH   4   5
ATOM      5  CA  GLU B   4       6.600  91.659  66.522  1.00  0.00     0.177 C 
BRANCH   5   6
ATOM      6  CB  GLU B   4       8.087  91.935  66.297  1.00  0.00     0.045 C 
BRANCH   6   7
ATOM      7  CG  GLU B   4       8.934  90.675  66.240  1.00  0.00     0.116 C 
BRANCH   7   8
ATOM      8  CD  GLU B   4      10.418  90.970  66.130  1.00  0.00     0.172 C 
ATOM      9  OE1 GLU B   4      11.159  90.643  67.080  1.00  0.00    -0.648 OA
ATOM     10  OE2 GLU B   4      10.837  91.528  65.094  1.00  0.00    -0.648 OA
ENDBRANCH   7   8
ENDBRANCH   6   7
ENDBRANCH   5   6
BRANCH   5  11
ATOM     11  C   GLU B   4       5.796  92.165  65.328  1.00  0.00     0.241 C 
ATOM     12  O   GLU B   4       4.703  92.710  65.489  1.00  0.00    -0.271 OA
ATOM     13  N   THR B   5       6.344  91.978  64.131  1.00  7.70    -0.344 N 
ATOM     14  H   THR B   5       7.217  91.536  64.072  1.00  0.23     0.163 HD
BRANCH  13  15
ATOM     15  CA  THR B   5       5.683  92.409  62.903  1.00  7.88     0.205 C 
BRANCH  15  16
ATOM     16  C   THR B   5       4.590  91.422  62.506  1.00  7.05     0.243 C 
ATOM     17  O   THR B   5       4.253  91.295  61.329  1.00  6.06    -0.271 OA
ATOM     18  N   TRP B   6       4.041  90.723  63.493  1.00  0.00    -0.346 N 
ATOM     19  H   TRP B   6       4.352  90.866  64.412  1.00  0.23     0.163 HD
BRANCH  18  20
ATOM     20  CA  TRP B   6       2.990  89.745  63.244  1.00  0.00     0.181 C 
BRANCH  20  21
ATOM     21  CB  TRP B   6       3.567  88.329  63.280  1.00  0.00     0.075 C 
BRANCH  21  22
ATOM     22  CG  TRP B   6       4.220  87.932  61.991  1.00  0.00    -0.028 A 
ATOM     23  CD2 TRP B   6       5.627  87.880  61.724  1.00  0.00    -0.002 A 
ATOM     24  CE2 TRP B   6       5.782  87.449  60.393  1.00  0.00     0.042 A 
ATOM     25  CE3 TRP B   6       6.768  88.158  62.480  1.00  0.00     0.014 A 
ATOM     26  CZ2 TRP B   6       7.034  87.289  59.805  1.00  0.00     0.030 A 
ATOM     27  NE1 TRP B   6       4.529  87.248  59.875  1.00  0.00    -0.365 N 
ATOM     28  CH2 TRP B   6       8.135  87.568  60.567  1.00  0.00     0.002 A 
ATOM     29  CZ3 TRP B   6       8.011  87.998  61.894  1.00  0.00     0.001 A 
ATOM     30  HE1 TRP B   6       4.330  86.945  58.965  1.00  0.23     0.165 HD
ATOM     31  CD1 TRP B   6       3.597  87.540  60.842  1.00  0.00     0.096 A 
ENDBRANCH  21  22
ENDBRANCH  20  21
BRANCH  20  32
ATOM     32  C   TRP B   6       1.866  89.880  64.266  1.00  0.00     0.241 C 
ATOM     33  N   VAL B   7       2.185  90.479  65.409  1.00  6.11    -0.344 N 
ATOM     34  H   VAL B   7       3.101  90.798  65.541  1.00  0.23     0.163 HD
ATOM     35  O   TRP B   6       0.738  89.449  64.024  1.00  0.00    -0.271 OA
BRANCH  33  36
ATOM     36  CA  VAL B   7       1.206  90.670  66.472  1.00  5.65     0.189 C 
BRANCH  36  37
ATOM     37  C   VAL B   7       1.031  92.150  66.801  1.00  4.44     0.197 C 
ATOM     38  O   VAL B   7       1.991  92.919  66.582  1.00  0.00    -0.646 OA
ATOM     39  OXT VAL B   7      -0.060  92.526  67.274  1.00  0.00    -0.646 OA
ENDBRANCH  36  37
BRANCH  36  40
ATOM     40  CB  VAL B   7       1.617  89.915  67.751  1.00  1.15     0.010 C 
ATOM     41  CG1 VAL B   7       2.419  90.823  68.673  1.00  4.96     0.012 C 
ATOM     42  CG2 VAL B   7       0.394  89.364  68.468  1.00  9.83     0.012 C 
ENDBRANCH  36  40
ENDBRANCH  33  36
ENDBRANCH  20  32
ENDBRANCH  18  20
ENDBRANCH  15  16
BRANCH  15  43
ATOM     43  CB  THR B   5       6.702  92.544  61.771  1.00  4.05     0.146 C 
ATOM     44  CG2 THR B   5       7.993  93.203  62.204  1.00  3.72     0.042 C 
BRANCH  43  45
ATOM     45  OG1 THR B   5       7.027  91.272  61.237  1.00  7.31    -0.393 OA
ATOM     46  HG1 THR B   5       7.964  91.104  61.360  1.00  0.23     0.210 HD
ENDBRANCH  43  45
ENDBRANCH  15  43
ENDBRANCH  13  15
ENDBRANCH   5  11
ENDBRANCH   4   5
BRANCH   1  47
ATOM     47  CA  TRP B   3       5.795  88.253  68.027  1.00  0.00     0.181 C 
BRANCH  47  48
ATOM     48  CB  TRP B   3       6.909  87.514  67.271  1.00  0.00     0.075 C 
BRANCH  48  49
ATOM     49  CG  TRP B   3       7.883  86.800  68.163  1.00  0.00    -0.028 A 
ATOM     50  CD1 TRP B   3       8.151  85.461  68.176  1.00  0.00     0.096 A 
ATOM     51  NE1 TRP B   3       9.095  85.178  69.135  1.00  0.00    -0.365 N 
ATOM     52  HE1 TRP B   3       9.453  84.287  69.334  1.00  0.23     0.165 HD
ATOM     53  CE2 TRP B   3       9.451  86.341  69.764  1.00  0.00     0.042 A 
ATOM     54  CZ2 TRP B   3      10.363  86.562  70.794  1.00  0.00     0.030 A 
ATOM     55  CD2 TRP B   3       8.707  87.384  69.179  1.00  0.00    -0.002 A 
ATOM     56  CH2 TRP B   3      10.522  87.848  71.234  1.00  0.00     0.002 A 
ATOM     57  CZ3 TRP B   3       9.795  88.905  70.673  1.00  0.00     0.001 A 
ATOM     58  CE3 TRP B   3       8.890  88.687  69.652  1.00  0.00     0.014 A 
ENDBRANCH  48  49
ENDBRANCH  47  48
BRANCH  47  59
ATOM     59  N   TRP B   3       4.478  87.873  67.523  1.00  0.00    -0.346 N 
ATOM     60  H   TRP B   3       4.020  88.466  66.890  1.00  0.23     0.163 HD
ATOM     61  C   LYS B   2       3.878  86.736  67.901  1.00  0.00     0.241 C 
ATOM     62  O   LYS B   2       4.390  85.957  68.700  1.00  0.00    -0.271 OA
BRANCH  61  63
ATOM     63  CA  LYS B   2       2.508  86.485  67.314  1.00  0.00     0.176 C 
BRANCH  63  64
ATOM     64  CB  LYS B   2       1.507  86.037  68.412  1.00  0.00     0.035 C 
BRANCH  64  65
ATOM     65  CG  LYS B   2       1.474  84.503  68.627  1.00  0.00     0.004 C 
BRANCH  65  66
ATOM     66  CD  LYS B   2       0.100  83.855  68.435  1.00  0.00     0.027 C 
BRANCH  66  67
ATOM     67  CE  LYS B   2       0.070  82.506  69.167  1.00  0.00     0.229 C 
BRANCH  67  68
ATOM     68  NZ  LYS B   2      -0.041  81.417  68.182  1.00  0.00    -0.079 N 
ATOM     69  HZ3 LYS B   2       0.206  80.567  68.668  1.00  0.00     0.274 HD
ATOM     70  HZ2 LYS B   2       0.580  81.574  67.381  1.00  0.00     0.274 HD
ATOM     71  HZ1 LYS B   2      -0.994  81.370  67.799  1.00  0.00     0.274 HD
ENDBRANCH  67  68
ENDBRANCH  66  67
ENDBRANCH  65  66
ENDBRANCH  64  65
ENDBRANCH  63  64
BRANCH  63  72
ATOM     72  N   LYS B   2       2.567  85.469  66.267  1.00  0.00    -0.346 N 
ATOM     73  H   LYS B   2       3.226  84.743  66.338  1.00  0.00     0.163 HD
ATOM     74  C   LYS B   1       1.745  85.502  65.213  1.00  0.00     0.254 C 
ATOM     75  O   LYS B   1       0.862  86.359  65.096  1.00  0.00    -0.271 OA
BRANCH  74  76
ATOM     76  CA  LYS B   1       1.922  84.402  64.193  1.00  0.00     0.350 C 
BRANCH  76  77
ATOM     77  CB  LYS B   1       2.327  83.069  64.879  1.00  0.00     0.048 C 
BRANCH  77  78
ATOM     78  CG  LYS B   1       2.502  81.894  63.884  1.00  0.00     0.004 C 
BRANCH  78  79
ATOM     79  CD  LYS B   1       2.957  80.576  64.518  1.00  0.00     0.027 C 
BRANCH  79  80
ATOM     80  CE  LYS B   1       1.724  79.764  64.939  1.00  0.00     0.229 C 
BRANCH  80  81
ATOM     81  NZ  LYS B   1       0.797  79.656  63.799  1.00  0.00    -0.079 N 
ATOM     82  HZ1 LYS B   1       1.311  79.686  62.910  1.00  0.00     0.274 HD
ATOM     83  HZ2 LYS B   1       0.296  78.761  63.809  1.00  0.00     0.274 HD
ATOM     84  HZ3 LYS B   1       0.153  80.430  63.881  1.00  0.00     0.274 HD
ENDBRANCH  80  81
ENDBRANCH  79  80
ENDBRANCH  78  79
ENDBRANCH  77  78
ENDBRANCH  76  77
BRANCH  76  85
ATOM     85  N   LYS B   1       2.931  84.766  63.202  1.00  0.00     0.312 N 
ATOM     86  H   LYS B   1       2.595  84.484  62.229  1.00  0.00     0.359 HD
ENDBRANCH  76  85
ENDBRANCH  74  76
ENDBRANCH  63  72
ENDBRANCH  61  63
ENDBRANCH  47  59
ENDBRANCH   1  47
TORSDOF 34
ENDMDL
MODEL 8
REMARK VINA RESULT:      -4.0      2.378      9.123
REMARK WARNING: 32 MAX_TORS EXCEEDED!!!
REMARK  34 active torsions:
REMARK  status: ('A' for Active; 'I' for Inactive)
REMARK    1  A    between atoms: N_1  and  CA_2 
REMARK    2  A    between atoms: CA_2  and  CB_5 
REMARK    3  A    between atoms: CA_2  and  C_3 
REMARK       I    between atoms: C_3  and  N_14 
REMARK    4  A    between atoms: CB_5  and  CG_6 
REMARK    5  A    between atoms: CG_6  and  CD_7 
REMARK    6  A    between atoms: CD_7  and  CE_8 
REMARK    7  A    between atoms: CE_8  and  NZ_9 
REMARK    8  A    between atoms: N_14  and  CA_15 
REMARK    9  A    between atoms: CA_15  and  C_16 
REMARK   10  A    between atoms: CA_15  and  CB_18 
REMARK       I    between atoms: C_16  and  N_40 
REMARK   11  A    between atoms: CB_18  and  CG_19 
REMARK   12  A    between atoms: CG_19  and  CD_20 
REMARK   13  A    between atoms: CD_20  and  CE_21 
REMARK   14  A    between atoms: CE_21  and  NZ_22 
REMARK   15  A    between atoms: CA_27  and  CB_29 
REMARK   16  A    between atoms: CA_27  and  N_40 
REMARK   17  A    between atoms: CA_27  and  C_28 
REMARK       I    between atoms: C_28  and  N_49 
REMARK   18  A    between atoms: CB_29  and  CG_30 
REMARK   19  A    between atoms: CA_43  and  N_49 
REMARK   20  A    between atoms: CA_43  and  CB_45 
REMARK   21  A    between atoms: CA_43  and  C_44 
REMARK       I    between atoms: C_44  and  N_59 
REMARK   22  A    between atoms: CB_45  and  CG_46 
REMARK   23  A    between atoms: CG_46  and  CD_47 
REMARK   24  A    between atoms: CA_53  and  N_59 
REMARK   25  A    between atoms: CA_53  and  C_54 
REMARK   26  A    between atoms: CA_53  and  CB_55 
REMARK       I    between atoms: C_54  and  N_75 
REMARK   27  A    between atoms: CB_55  and  OG1_61 
REMARK   28  A    between atoms: CA_62  and  CB_64 
REMARK   29  A    between atoms: CA_62  and  C_63 
REMARK   30  A    between atoms: CA_62  and  N_75 
REMARK       I    between atoms: C_63  and  N_84 
REMARK   31  A    between atoms: CB_64  and  CG_65 
REMARK   32  A    between atoms: CA_78  and  C_79 
REMARK   33  A    between atoms: CA_78  and  CB_80 
REMARK   34  A    between atoms: CA_78  and  N_84 
ROOT
ATOM      1  C   TRP B   3       6.363  89.071  68.130  1.00  0.00     0.241 C 
ATOM      2  O   TRP B   3       6.214  89.933  68.995  1.00  0.00    -0.271 OA
ATOM      3  H   GLU B   4       7.035  88.597  66.304  1.00  0.23     0.163 HD
ATOM      4  N   GLU B   4       6.942  89.320  66.958  1.00  0.00    -0.346 N 
ENDROOT
BRANCH   4   5
ATOM      5  CA  GLU B   4       7.439  90.654  66.625  1.00  0.00     0.177 C 
BRANCH   5   6
ATOM      6  CB  GLU B   4       8.740  90.557  65.826  1.00  0.00     0.045 C 
BRANCH   6   7
ATOM      7  CG  GLU B   4       9.884  91.349  66.436  1.00  0.00     0.116 C 
BRANCH   7   8
ATOM      8  CD  GLU B   4      11.137  91.323  65.580  1.00  0.00     0.172 C 
ATOM      9  OE1 GLU B   4      11.037  90.947  64.394  1.00  0.00    -0.648 OA
ATOM     10  OE2 GLU B   4      12.216  91.680  66.097  1.00  0.00    -0.648 OA
ENDBRANCH   7   8
ENDBRANCH   6   7
ENDBRANCH   5   6
BRANCH   5  11
ATOM     11  C   GLU B   4       6.402  91.437  65.827  1.00  0.00     0.241 C 
ATOM     12  O   GLU B   4       5.271  91.626  66.277  1.00  0.00    -0.271 OA
ATOM     13  N   THR B   5       6.794  91.886  64.638  1.00  7.70    -0.344 N 
ATOM     14  H   THR B   5       7.708  91.699  64.337  1.00  0.23     0.163 HD
BRANCH  13  15
ATOM     15  CA  THR B   5       5.902  92.647  63.767  1.00  7.88     0.205 C 
BRANCH  15  16
ATOM     16  C   THR B   5       4.823  91.743  63.181  1.00  7.05     0.243 C 
ATOM     17  O   THR B   5       4.062  92.156  62.306  1.00  6.06    -0.271 OA
ATOM     18  N   TRP B   6       4.764  90.507  63.665  1.00  0.00    -0.346 N 
ATOM     19  H   TRP B   6       5.398  90.234  64.361  1.00  0.23     0.163 HD
BRANCH  18  20
ATOM     20  CA  TRP B   6       3.780  89.545  63.185  1.00  0.00     0.181 C 
BRANCH  20  21
ATOM     21  CB  TRP B   6       4.340  88.125  63.280  1.00  0.00     0.075 C 
BRANCH  21  22
ATOM     22  CG  TRP B   6       5.547  87.914  62.417  1.00  0.00    -0.028 A 
ATOM     23  CD2 TRP B   6       5.579  87.287  61.129  1.00  0.00    -0.002 A 
ATOM     24  CE2 TRP B   6       6.916  87.313  60.687  1.00  0.00     0.042 A 
ATOM     25  CE3 TRP B   6       4.609  86.706  60.309  1.00  0.00     0.014 A 
ATOM     26  CZ2 TRP B   6       7.303  86.782  59.461  1.00  0.00     0.030 A 
ATOM     27  NE1 TRP B   6       7.660  87.927  61.661  1.00  0.00    -0.365 N 
ATOM     28  CH2 TRP B   6       6.334  86.218  58.677  1.00  0.00     0.002 A 
ATOM     29  CZ3 TRP B   6       4.997  86.178  59.090  1.00  0.00     0.001 A 
ATOM     30  HE1 TRP B   6       8.627  88.086  61.625  1.00  0.23     0.165 HD
ATOM     31  CD1 TRP B   6       6.830  88.284  62.696  1.00  0.00     0.096 A 
ENDBRANCH  21  22
ENDBRANCH  20  21
BRANCH  20  32
ATOM     32  C   TRP B   6       2.481  89.652  63.977  1.00  0.00     0.241 C 
ATOM     33  N   VAL B   7       2.586  90.140  65.209  1.00  6.11    -0.344 N 
ATOM     34  H   VAL B   7       3.468  90.403  65.544  1.00  0.23     0.163 HD
ATOM     35  O   TRP B   6       1.410  89.297  63.483  1.00  0.00    -0.271 OA
BRANCH  33  36
ATOM     36  CA  VAL B   7       1.423  90.293  66.074  1.00  5.65     0.189 C 
BRANCH  36  37
ATOM     37  C   VAL B   7       1.155  91.763  66.383  1.00  4.44     0.197 C 
ATOM     38  O   VAL B   7       2.112  92.562  66.317  1.00  0.00    -0.646 OA
ATOM     39  OXT VAL B   7      -0.006  92.101  66.690  1.00  0.00    -0.646 OA
ENDBRANCH  36  37
BRANCH  36  40
ATOM     40  CB  VAL B   7       1.609  89.525  67.398  1.00  1.15     0.010 C 
ATOM     41  CG1 VAL B   7       2.516  90.302  68.342  1.00  4.96     0.012 C 
ATOM     42  CG2 VAL B   7       0.264  89.245  68.050  1.00  9.83     0.012 C 
ENDBRANCH  36  40
ENDBRANCH  33  36
ENDBRANCH  20  32
ENDBRANCH  18  20
ENDBRANCH  15  16
BRANCH  15  43
ATOM     43  CB  THR B   5       6.698  93.308  62.641  1.00  4.05     0.146 C 
ATOM     44  CG2 THR B   5       7.437  92.316  61.769  1.00  3.72     0.042 C 
BRANCH  43  45
ATOM     45  OG1 THR B   5       5.843  94.063  61.800  1.00  7.31    -0.393 OA
ATOM     46  HG1 THR B   5       5.144  94.457  62.326  1.00  0.23     0.210 HD
ENDBRANCH  43  45
ENDBRANCH  15  43
ENDBRANCH  13  15
ENDBRANCH   5  11
ENDBRANCH   4   5
BRANCH   1  47
ATOM     47  CA  TRP B   3       5.882  87.642  68.362  1.00  0.00     0.181 C 
BRANCH  47  48
ATOM     48  CB  TRP B   3       6.915  86.645  67.817  1.00  0.00     0.075 C 
BRANCH  48  49
ATOM     49  CG  TRP B   3       7.645  85.879  68.881  1.00  0.00    -0.028 A 
ATOM     50  CD1 TRP B   3       7.406  84.593  69.273  1.00  0.00     0.096 A 
ATOM     51  NE1 TRP B   3       8.272  84.238  70.280  1.00  0.00    -0.365 N 
ATOM     52  HE1 TRP B   3       8.299  83.365  70.725  1.00  0.23     0.165 HD
ATOM     53  CE2 TRP B   3       9.090  85.301  70.558  1.00  0.00     0.042 A 
ATOM     54  CZ2 TRP B   3      10.118  85.424  71.490  1.00  0.00     0.030 A 
ATOM     55  CD2 TRP B   3       8.723  86.353  69.697  1.00  0.00    -0.002 A 
ATOM     56  CH2 TRP B   3      10.778  86.621  71.550  1.00  0.00     0.002 A 
ATOM     57  CZ3 TRP B   3      10.435  87.685  70.709  1.00  0.00     0.001 A 
ATOM     58  CE3 TRP B   3       9.415  87.565  69.783  1.00  0.00     0.014 A 
ENDBRANCH  48  49
ENDBRANCH  47  48
BRANCH  47  59
ATOM     59  N   TRP B   3       4.571  87.424  67.755  1.00  0.00    -0.346 N 
ATOM     60  H   TRP B   3       4.290  87.993  67.008  1.00  0.23     0.163 HD
ATOM     61  C   LYS B   2       3.742  86.465  68.192  1.00  0.00     0.241 C 
ATOM     62  O   LYS B   2       4.026  85.728  69.132  1.00  0.00    -0.271 OA
BRANCH  61  63
ATOM     63  CA  LYS B   2       2.411  86.371  67.482  1.00  0.00     0.176 C 
BRANCH  63  64
ATOM     64  CB  LYS B   2       1.390  85.556  68.322  1.00  0.00     0.035 C 
BRANCH  64  65
ATOM     65  CG  LYS B   2       1.191  84.106  67.814  1.00  0.00     0.004 C 
BRANCH  65  66
ATOM     66  CD  LYS B   2       1.964  83.039  68.594  1.00  0.00     0.027 C 
BRANCH  66  67
ATOM     67  CE  LYS B   2       1.725  81.668  67.946  1.00  0.00     0.229 C 
BRANCH  67  68
ATOM     68  NZ  LYS B   2       1.313  81.855  66.544  1.00  0.00    -0.079 N 
ATOM     69  HZ3 LYS B   2       0.359  82.187  66.569  1.00  0.00     0.274 HD
ATOM     70  HZ2 LYS B   2       1.381  80.978  66.016  1.00  0.00     0.274 HD
ATOM     71  HZ1 LYS B   2       1.934  82.522  66.069  1.00  0.00     0.274 HD
ENDBRANCH  67  68
ENDBRANCH  66  67
ENDBRANCH  65  66
ENDBRANCH  64  65
ENDBRANCH  63  64
BRANCH  63  72
ATOM     72  N   LYS B   2       2.562  85.751  66.168  1.00  0.00    -0.346 N 
ATOM     73  H   LYS B   2       3.277  85.090  66.028  1.00  0.00     0.163 HD
ATOM     74  C   LYS B   1       1.752  86.060  65.152  1.00  0.00     0.254 C 
ATOM     75  O   LYS B   1       0.804  86.843  65.282  1.00  0.00    -0.271 OA
BRANCH  74  76
ATOM     76  CA  LYS B   1       2.028  85.362  63.841  1.00  0.00     0.350 C 
BRANCH  76  77
ATOM     77  CB  LYS B   1       0.740  85.275  62.976  1.00  0.00     0.048 C 
BRANCH  77  78
ATOM     78  CG  LYS B   1       1.008  85.420  61.458  1.00  0.00     0.004 C 
BRANCH  78  79
ATOM     79  CD  LYS B   1       1.071  86.864  60.950  1.00  0.00     0.027 C 
BRANCH  79  80
ATOM     80  CE  LYS B   1       0.471  86.930  59.539  1.00  0.00     0.229 C 
BRANCH  80  81
ATOM     81  NZ  LYS B   1       1.459  87.510  58.613  1.00  0.00    -0.079 N 
ATOM     82  HZ1 LYS B   1       1.004  88.153  57.953  1.00  0.00     0.274 HD
ATOM     83  HZ2 LYS B   1       2.159  88.066  59.114  1.00  0.00     0.274 HD
ATOM     84  HZ3 LYS B   1       1.891  86.733  58.135  1.00  0.00     0.274 HD
ENDBRANCH  80  81
ENDBRANCH  79  80
ENDBRANCH  78  79
ENDBRANCH  77  78
ENDBRANCH  76  77
BRANCH  76  85
ATOM     85  N   LYS B   1       2.554  84.018  64.065  1.00  0.00     0.312 N 
ATOM     86  H   LYS B   1       1.766  83.305  63.972  1.00  0.00     0.359 HD
ENDBRANCH  76  85
ENDBRANCH  74  76
ENDBRANCH  63  72
ENDBRANCH  61  63
ENDBRANCH  47  59
ENDBRANCH   1  47
TORSDOF 34
ENDMDL
