MODEL 1
REMARK VINA RESULT:      -7.9      0.000      0.000
REMARK  32 active torsions:
REMARK  status: ('A' for Active; 'I' for Inactive)
REMARK    1  A    between atoms: N_1  and  CA_2 
REMARK    2  A    between atoms: CA_2  and  CB_5 
REMARK    3  A    between atoms: CA_2  and  C_3 
REMARK       I    between atoms: C_3  and  N_14 
REMARK    4  A    between atoms: CB_5  and  CG_6 
REMARK    5  A    between atoms: CG_6  and  CD_7 
REMARK    6  A    between atoms: CD_7  and  CE_8 
REMARK    7  A    between atoms: CE_8  and  NZ_9 
REMARK    8  A    between atoms: N_14  and  CA_15 
REMARK    9  A    between atoms: CA_15  and  C_16 
REMARK   10  A    between atoms: CA_15  and  CB_18 
REMARK       I    between atoms: C_16  and  N_41 
REMARK   11  A    between atoms: CB_18  and  CG_19 
REMARK   12  A    between atoms: CZ_24  and  OH_25 
REMARK   13  A    between atoms: CA_28  and  CB_30 
REMARK   14  A    between atoms: CA_28  and  C_29 
REMARK   15  A    between atoms: CA_28  and  N_41 
REMARK       I    between atoms: C_29  and  N_50 
REMARK   16  A    between atoms: CB_30  and  CG_31 
REMARK   17  A    between atoms: CA_44  and  N_50 
REMARK   18  A    between atoms: CA_44  and  CB_46 
REMARK   19  A    between atoms: CA_44  and  C_45 
REMARK       I    between atoms: C_45  and  N_60 
REMARK   20  A    between atoms: CB_46  and  CG_47 
REMARK   21  A    between atoms: CG_47  and  CD_48 
REMARK   22  A    between atoms: CA_54  and  C_55 
REMARK   23  A    between atoms: CA_54  and  N_60 
REMARK   24  A    between atoms: CA_54  and  CB_56 
REMARK       I    between atoms: C_55  and  N_76 
REMARK   25  A    between atoms: CB_56  and  OG1_62 
REMARK   26  A    between atoms: CA_63  and  CB_65 
REMARK   27  A    between atoms: CA_63  and  C_64 
REMARK   28  A    between atoms: CA_63  and  N_76 
REMARK       I    between atoms: C_64  and  N_85 
REMARK   29  A    between atoms: CB_65  and  CG_66 
REMARK   30  A    between atoms: CA_79  and  N_85 
REMARK   31  A    between atoms: CA_79  and  CB_81 
REMARK   32  A    between atoms: CA_79  and  C_80 
ROOT
ATOM      1  C   TRP B   3       4.358  89.872  62.567  1.00  0.00     0.241 C 
ATOM      2  O   TRP B   3       5.418  89.248  62.520  1.00  0.00    -0.271 OA
ATOM      3  H   GLU B   4       3.305  91.474  61.990  1.00  0.23     0.163 HD
ATOM      4  N   GLU B   4       4.169  91.017  61.917  1.00  0.00    -0.346 N 
ENDROOT
BRANCH   4   5
ATOM      5  CA  GLU B   4       5.224  91.611  61.100  1.00  0.00     0.177 C 
BRANCH   5   6
ATOM      6  CB  GLU B   4       4.623  92.494  60.006  1.00  0.00     0.045 C 
BRANCH   6   7
ATOM      7  CG  GLU B   4       3.441  91.856  59.295  1.00  0.00     0.116 C 
BRANCH   7   8
ATOM      8  CD  GLU B   4       3.739  90.451  58.808  1.00  0.00     0.172 C 
ATOM      9  OE1 GLU B   4       4.552  90.308  57.872  1.00  0.00    -0.648 OA
ATOM     10  OE2 GLU B   4       3.158  89.495  59.363  1.00  0.00    -0.648 OA
ENDBRANCH   7   8
ENDBRANCH   6   7
ENDBRANCH   5   6
BRANCH   5  11
ATOM     11  C   GLU B   4       6.180  92.433  61.959  1.00  0.00     0.241 C 
ATOM     12  O   GLU B   4       6.656  93.489  61.539  1.00  0.00    -0.271 OA
ATOM     13  N   THR B   5       6.458  91.940  63.162  1.00  7.70    -0.344 N 
ATOM     14  H   THR B   5       6.047  91.093  63.435  1.00  0.23     0.163 HD
BRANCH  13  15
ATOM     15  CA  THR B   5       7.360  92.622  64.086  1.00  7.88     0.205 C 
BRANCH  15  16
ATOM     16  C   THR B   5       8.666  91.847  64.233  1.00  7.05     0.243 C 
ATOM     17  O   THR B   5       9.078  91.130  63.322  1.00  6.06    -0.271 OA
ATOM     18  N   TRP B   6       9.314  91.999  65.382  1.00  0.00    -0.346 N 
ATOM     19  H   TRP B   6       8.937  92.586  66.071  1.00  0.23     0.163 HD
BRANCH  18  20
ATOM     20  CA  TRP B   6      10.575  91.317  65.644  1.00  0.00     0.181 C 
BRANCH  20  21
ATOM     21  CB  TRP B   6      11.662  92.333  65.997  1.00  0.00     0.075 C 
BRANCH  21  22
ATOM     22  CG  TRP B   6      12.840  92.273  65.074  1.00  0.00    -0.028 A 
ATOM     23  CD2 TRP B   6      13.278  93.300  64.176  1.00  0.00    -0.002 A 
ATOM     24  CE2 TRP B   6      14.422  92.816  63.515  1.00  0.00     0.042 A 
ATOM     25  CE3 TRP B   6      12.812  94.581  63.867  1.00  0.00     0.014 A 
ATOM     26  NE1 TRP B   6      14.668  91.553  63.989  1.00  0.00    -0.365 N 
ATOM     27  CZ2 TRP B   6      15.107  93.569  62.565  1.00  0.00     0.030 A 
ATOM     28  HE1 TRP B   6      15.405  90.972  63.707  1.00  0.23     0.165 HD
ATOM     29  CD1 TRP B   6      13.713  91.235  64.924  1.00  0.00     0.096 A 
ATOM     30  CH2 TRP B   6      14.630  94.819  62.281  1.00  0.00     0.002 A 
ATOM     31  CZ3 TRP B   6      13.494  95.327  62.923  1.00  0.00     0.001 A 
ENDBRANCH  21  22
ENDBRANCH  20  21
BRANCH  20  32
ATOM     32  C   TRP B   6      10.421  90.299  66.769  1.00  0.00     0.241 C 
ATOM     33  N   VAL B   7       9.186  89.857  66.993  1.00  6.11    -0.344 N 
ATOM     34  H   VAL B   7       8.452  90.195  66.440  1.00  0.23     0.163 HD
ATOM     35  O   TRP B   6      11.397  89.926  67.420  1.00  0.00    -0.271 OA
BRANCH  33  36
ATOM     36  CA  VAL B   7       8.899  88.886  68.040  1.00  5.65     0.189 C 
BRANCH  36  37
ATOM     37  CB  VAL B   7       7.541  89.173  68.709  1.00  1.15     0.010 C 
ATOM     38  CG1 VAL B   7       7.234  88.123  69.767  1.00  4.96     0.012 C 
ATOM     39  CG2 VAL B   7       7.524  90.569  69.314  1.00  9.83     0.012 C 
ENDBRANCH  36  37
BRANCH  36  40
ATOM     40  C   VAL B   7       8.891  87.464  67.486  1.00  4.44     0.197 C 
ATOM     41  O   VAL B   7       9.603  86.608  68.050  1.00  0.00    -0.646 OA
ATOM     42  OXT VAL B   7       8.175  87.220  66.493  1.00  0.00    -0.646 OA
ENDBRANCH  36  40
ENDBRANCH  33  36
ENDBRANCH  20  32
ENDBRANCH  18  20
ENDBRANCH  15  16
BRANCH  15  43
ATOM     43  CB  THR B   5       6.694  92.784  65.454  1.00  4.05     0.146 C 
ATOM     44  CG2 THR B   5       5.277  93.308  65.370  1.00  3.72     0.042 C 
BRANCH  43  45
ATOM     45  OG1 THR B   5       6.653  91.547  66.141  1.00  7.31    -0.393 OA
ATOM     46  HG1 THR B   5       6.378  90.854  65.537  1.00  0.23     0.210 HD
ENDBRANCH  43  45
ENDBRANCH  15  43
ENDBRANCH  13  15
ENDBRANCH   5  11
ENDBRANCH   4   5
BRANCH   1  47
ATOM     47  CA  TRP B   3       3.184  89.352  63.390  1.00  0.00     0.181 C 
BRANCH  47  48
ATOM     48  CB  TRP B   3       3.550  89.346  64.881  1.00  0.00     0.075 C 
BRANCH  48  49
ATOM     49  CG  TRP B   3       2.538  90.019  65.762  1.00  0.00    -0.028 A 
ATOM     50  CD2 TRP B   3       2.636  90.236  67.175  1.00  0.00    -0.002 A 
ATOM     51  CE2 TRP B   3       1.466  90.907  67.578  1.00  0.00     0.042 A 
ATOM     52  CE3 TRP B   3       3.599  89.927  68.141  1.00  0.00     0.014 A 
ATOM     53  CZ2 TRP B   3       1.233  91.273  68.901  1.00  0.00     0.030 A 
ATOM     54  NE1 TRP B   3       0.693  91.093  66.461  1.00  0.00    -0.365 N 
ATOM     55  CH2 TRP B   3       2.192  90.956  69.824  1.00  0.00     0.002 A 
ATOM     56  CZ3 TRP B   3       3.367  90.291  69.454  1.00  0.00     0.001 A 
ATOM     57  HE1 TRP B   3      -0.182  91.534  66.438  1.00  0.23     0.165 HD
ATOM     58  CD1 TRP B   3       1.345  90.558  65.375  1.00  0.00     0.096 A 
ENDBRANCH  48  49
ENDBRANCH  47  48
BRANCH  47  59
ATOM     59  N   TRP B   3       2.777  88.022  62.945  1.00  0.00    -0.346 N 
ATOM     60  C   TYR B   2       1.503  87.737  62.638  1.00  0.00     0.241 C 
ATOM     61  O   TYR B   2       0.610  88.579  62.699  1.00  0.00    -0.271 OA
ATOM     62  H   TRP B   3       3.454  87.316  62.869  1.00  0.23     0.163 HD
BRANCH  60  63
ATOM     63  CA  TYR B   2       1.235  86.326  62.172  1.00  0.00     0.180 C 
BRANCH  63  64
ATOM     64  N   TYR B   2       2.244  85.894  61.209  1.00  0.00    -0.346 N 
ATOM     65  C   LYS B   1       2.144  86.194  59.910  1.00  0.00     0.254 C 
ATOM     66  O   LYS B   1       1.173  86.804  59.450  1.00  0.00    -0.271 OA
ATOM     67  H   TYR B   2       3.013  85.370  61.523  1.00  0.00     0.163 HD
BRANCH  65  68
ATOM     68  CA  LYS B   1       3.264  85.704  59.023  1.00  0.00     0.350 C 
BRANCH  68  69
ATOM     69  CB  LYS B   1       4.565  86.515  59.272  1.00  0.00     0.048 C 
BRANCH  69  70
ATOM     70  CG  LYS B   1       5.854  85.743  58.894  1.00  0.00     0.004 C 
BRANCH  70  71
ATOM     71  CD  LYS B   1       6.656  86.354  57.742  1.00  0.00     0.027 C 
BRANCH  71  72
ATOM     72  CE  LYS B   1       6.967  87.822  58.066  1.00  0.00     0.229 C 
BRANCH  72  73
ATOM     73  NZ  LYS B   1       6.995  88.604  56.818  1.00  0.00    -0.079 N 
ATOM     74  HZ1 LYS B   1       6.066  88.991  56.612  1.00  0.00     0.274 HD
ATOM     75  HZ2 LYS B   1       7.628  89.407  56.894  1.00  0.00     0.274 HD
ATOM     76  HZ3 LYS B   1       7.303  87.971  56.093  1.00  0.00     0.274 HD
ENDBRANCH  72  73
ENDBRANCH  71  72
ENDBRANCH  70  71
ENDBRANCH  69  70
ENDBRANCH  68  69
BRANCH  68  77
ATOM     77  N   LYS B   1       2.895  85.798  57.614  1.00  0.00     0.312 N 
ATOM     78  H   LYS B   1       1.869  86.081  57.532  1.00  0.00     0.359 HD
ENDBRANCH  68  77
ENDBRANCH  65  68
ENDBRANCH  63  64
BRANCH  63  79
ATOM     79  CB  TYR B   2       1.231  85.401  63.424  1.00  0.00     0.073 C 
BRANCH  79  80
ATOM     80  CG  TYR B   2       1.506  83.912  63.179  1.00  0.00    -0.056 A 
ATOM     81  CD1 TYR B   2       2.700  83.327  63.614  1.00  0.00     0.010 A 
ATOM     82  CE1 TYR B   2       2.932  81.972  63.400  1.00  0.00     0.037 A 
ATOM     83  CZ  TYR B   2       1.975  81.195  62.749  1.00  0.00     0.065 A 
ATOM     84  CE2 TYR B   2       0.785  81.773  62.312  1.00  0.00     0.037 A 
ATOM     85  CD2 TYR B   2       0.552  83.127  62.526  1.00  0.00     0.010 A 
BRANCH  83  86
ATOM     86  OH  TYR B   2       2.207  79.865  62.543  1.00  0.00    -0.361 OA
ATOM     87  HH  TYR B   2       1.764  79.369  63.236  1.00  0.00     0.217 HD
ENDBRANCH  83  86
ENDBRANCH  79  80
ENDBRANCH  63  79
ENDBRANCH  60  63
ENDBRANCH  47  59
ENDBRANCH   1  47
TORSDOF 32
ENDMDL
MODEL 2
REMARK VINA RESULT:      -7.5      2.709      6.456
REMARK  32 active torsions:
REMARK  status: ('A' for Active; 'I' for Inactive)
REMARK    1  A    between atoms: N_1  and  CA_2 
REMARK    2  A    between atoms: CA_2  and  CB_5 
REMARK    3  A    between atoms: CA_2  and  C_3 
REMARK       I    between atoms: C_3  and  N_14 
REMARK    4  A    between atoms: CB_5  and  CG_6 
REMARK    5  A    between atoms: CG_6  and  CD_7 
REMARK    6  A    between atoms: CD_7  and  CE_8 
REMARK    7  A    between atoms: CE_8  and  NZ_9 
REMARK    8  A    between atoms: N_14  and  CA_15 
REMARK    9  A    between atoms: CA_15  and  C_16 
REMARK   10  A    between atoms: CA_15  and  CB_18 
REMARK       I    between atoms: C_16  and  N_41 
REMARK   11  A    between atoms: CB_18  and  CG_19 
REMARK   12  A    between atoms: CZ_24  and  OH_25 
REMARK   13  A    between atoms: CA_28  and  CB_30 
REMARK   14  A    between atoms: CA_28  and  C_29 
REMARK   15  A    between atoms: CA_28  and  N_41 
REMARK       I    between atoms: C_29  and  N_50 
REMARK   16  A    between atoms: CB_30  and  CG_31 
REMARK   17  A    between atoms: CA_44  and  N_50 
REMARK   18  A    between atoms: CA_44  and  CB_46 
REMARK   19  A    between atoms: CA_44  and  C_45 
REMARK       I    between atoms: C_45  and  N_60 
REMARK   20  A    between atoms: CB_46  and  CG_47 
REMARK   21  A    between atoms: CG_47  and  CD_48 
REMARK   22  A    between atoms: CA_54  and  C_55 
REMARK   23  A    between atoms: CA_54  and  N_60 
REMARK   24  A    between atoms: CA_54  and  CB_56 
REMARK       I    between atoms: C_55  and  N_76 
REMARK   25  A    between atoms: CB_56  and  OG1_62 
REMARK   26  A    between atoms: CA_63  and  CB_65 
REMARK   27  A    between atoms: CA_63  and  C_64 
REMARK   28  A    between atoms: CA_63  and  N_76 
REMARK       I    between atoms: C_64  and  N_85 
REMARK   29  A    between atoms: CB_65  and  CG_66 
REMARK   30  A    between atoms: CA_79  and  N_85 
REMARK   31  A    between atoms: CA_79  and  CB_81 
REMARK   32  A    between atoms: CA_79  and  C_80 
ROOT
ATOM      1  C   TRP B   3       4.175  88.114  62.406  1.00  0.00     0.241 C 
ATOM      2  O   TRP B   3       5.122  87.380  62.685  1.00  0.00    -0.271 OA
ATOM      3  H   GLU B   4       3.474  89.640  61.316  1.00  0.23     0.163 HD
ATOM      4  N   GLU B   4       4.259  89.084  61.499  1.00  0.00    -0.346 N 
ENDROOT
BRANCH   4   5
ATOM      5  CA  GLU B   4       5.501  89.339  60.772  1.00  0.00     0.177 C 
BRANCH   5   6
ATOM      6  CB  GLU B   4       5.380  88.869  59.322  1.00  0.00     0.045 C 
BRANCH   6   7
ATOM      7  CG  GLU B   4       5.259  87.360  59.184  1.00  0.00     0.116 C 
BRANCH   7   8
ATOM      8  CD  GLU B   4       6.599  86.682  58.968  1.00  0.00     0.172 C 
ATOM      9  OE1 GLU B   4       7.195  86.215  59.960  1.00  0.00    -0.648 OA
ATOM     10  OE2 GLU B   4       7.050  86.618  57.805  1.00  0.00    -0.648 OA
ENDBRANCH   7   8
ENDBRANCH   6   7
ENDBRANCH   5   6
BRANCH   5  11
ATOM     11  C   GLU B   4       5.855  90.823  60.805  1.00  0.00     0.241 C 
ATOM     12  O   GLU B   4       5.984  91.463  59.760  1.00  0.00    -0.271 OA
ATOM     13  N   THR B   5       6.013  91.362  62.010  1.00  7.70    -0.344 N 
ATOM     14  H   THR B   5       5.897  90.796  62.802  1.00  0.23     0.163 HD
BRANCH  13  15
ATOM     15  CA  THR B   5       6.356  92.769  62.188  1.00  7.88     0.205 C 
BRANCH  15  16
ATOM     16  C   THR B   5       7.865  92.942  62.320  1.00  7.05     0.243 C 
ATOM     17  O   THR B   5       8.471  93.748  61.614  1.00  6.06    -0.271 OA
ATOM     18  N   TRP B   6       8.467  92.183  63.229  1.00  0.00    -0.346 N 
ATOM     19  H   TRP B   6       7.931  91.560  63.763  1.00  0.23     0.163 HD
BRANCH  18  20
ATOM     20  CA  TRP B   6       9.905  92.257  63.455  1.00  0.00     0.181 C 
BRANCH  20  21
ATOM     21  CB  TRP B   6      10.259  93.557  64.178  1.00  0.00     0.075 C 
BRANCH  21  22
ATOM     22  CG  TRP B   6      11.309  94.355  63.466  1.00  0.00    -0.028 A 
ATOM     23  CD2 TRP B   6      12.703  94.040  63.366  1.00  0.00    -0.002 A 
ATOM     24  CE2 TRP B   6      13.306  95.058  62.603  1.00  0.00     0.042 A 
ATOM     25  CE3 TRP B   6      13.499  92.998  63.849  1.00  0.00     0.014 A 
ATOM     26  NE1 TRP B   6      12.324  95.949  62.255  1.00  0.00    -0.365 N 
ATOM     27  CZ2 TRP B   6      14.667  95.061  62.312  1.00  0.00     0.030 A 
ATOM     28  HE1 TRP B   6      12.454  96.761  61.721  1.00  0.23     0.165 HD
ATOM     29  CD1 TRP B   6      11.128  95.519  62.778  1.00  0.00     0.096 A 
ATOM     30  CH2 TRP B   6      15.424  94.030  62.797  1.00  0.00     0.002 A 
ATOM     31  CZ3 TRP B   6      14.851  93.004  63.559  1.00  0.00     0.001 A 
ENDBRANCH  21  22
ENDBRANCH  20  21
BRANCH  20  32
ATOM     32  C   TRP B   6      10.393  91.057  64.260  1.00  0.00     0.241 C 
ATOM     33  N   VAL B   7      10.797  91.312  65.501  1.00  6.11    -0.344 N 
ATOM     34  H   VAL B   7      10.763  92.232  65.835  1.00  0.23     0.163 HD
ATOM     35  O   TRP B   6      10.405  89.929  63.767  1.00  0.00    -0.271 OA
BRANCH  33  36
ATOM     36  CA  VAL B   7      11.290  90.256  66.377  1.00  5.65     0.189 C 
BRANCH  36  37
ATOM     37  CB  VAL B   7      12.744  90.526  66.810  1.00  1.15     0.010 C 
ATOM     38  CG1 VAL B   7      13.716  90.053  65.739  1.00  4.96     0.012 C 
ATOM     39  CG2 VAL B   7      12.950  92.002  67.113  1.00  9.83     0.012 C 
ENDBRANCH  36  37
BRANCH  36  40
ATOM     40  C   VAL B   7      10.416  90.120  67.621  1.00  4.44     0.197 C 
ATOM     41  O   VAL B   7       9.650  91.063  67.909  1.00  0.00    -0.646 OA
ATOM     42  OXT VAL B   7      10.506  89.074  68.295  1.00  0.00    -0.646 OA
ENDBRANCH  36  40
ENDBRANCH  33  36
ENDBRANCH  20  32
ENDBRANCH  18  20
ENDBRANCH  15  16
BRANCH  15  43
ATOM     43  CB  THR B   5       5.656  93.334  63.425  1.00  4.05     0.146 C 
ATOM     44  CG2 THR B   5       4.442  92.533  63.843  1.00  3.72     0.042 C 
BRANCH  43  45
ATOM     45  OG1 THR B   5       6.543  93.374  64.528  1.00  7.31    -0.393 OA
ATOM     46  HG1 THR B   5       6.649  94.281  64.822  1.00  0.23     0.210 HD
ENDBRANCH  43  45
ENDBRANCH  15  43
ENDBRANCH  13  15
ENDBRANCH   5  11
ENDBRANCH   4   5
BRANCH   1  47
ATOM     47  CA  TRP B   3       2.827  87.945  63.101  1.00  0.00     0.181 C 
BRANCH  47  48
ATOM     48  CB  TRP B   3       1.762  88.794  62.392  1.00  0.00     0.075 C 
BRANCH  48  49
ATOM     49  CG  TRP B   3       1.107  88.107  61.230  1.00  0.00    -0.028 A 
ATOM     50  CD2 TRP B   3       1.147  88.514  59.856  1.00  0.00    -0.002 A 
ATOM     51  CE2 TRP B   3       0.405  87.571  59.119  1.00  0.00     0.042 A 
ATOM     52  CE3 TRP B   3       1.737  89.584  59.177  1.00  0.00     0.014 A 
ATOM     53  CZ2 TRP B   3       0.236  87.668  57.739  1.00  0.00     0.030 A 
ATOM     54  NE1 TRP B   3      -0.062  86.634  60.002  1.00  0.00    -0.365 N 
ATOM     55  CH2 TRP B   3       0.824  88.727  57.103  1.00  0.00     0.002 A 
ATOM     56  CZ3 TRP B   3       1.569  89.679  57.808  1.00  0.00     0.001 A 
ATOM     57  HE1 TRP B   3      -0.613  85.856  59.772  1.00  0.23     0.165 HD
ATOM     58  CD1 TRP B   3       0.365  86.961  61.267  1.00  0.00     0.096 A 
ENDBRANCH  48  49
ENDBRANCH  47  48
BRANCH  47  59
ATOM     59  N   TRP B   3       2.919  88.293  64.516  1.00  0.00    -0.346 N 
ATOM     60  C   TYR B   2       2.530  87.445  65.480  1.00  0.00     0.241 C 
ATOM     61  O   TYR B   2       2.091  86.326  65.230  1.00  0.00    -0.271 OA
ATOM     62  H   TRP B   3       3.274  89.172  64.771  1.00  0.23     0.163 HD
BRANCH  60  63
ATOM     63  CA  TYR B   2       2.703  87.933  66.899  1.00  0.00     0.180 C 
BRANCH  63  64
ATOM     64  N   TYR B   2       3.610  89.076  66.951  1.00  0.00    -0.346 N 
ATOM     65  C   LYS B   1       4.680  89.083  67.751  1.00  0.00     0.254 C 
ATOM     66  O   LYS B   1       4.929  88.151  68.524  1.00  0.00    -0.271 OA
ATOM     67  H   TYR B   2       3.429  89.858  66.384  1.00  0.00     0.163 HD
BRANCH  65  68
ATOM     68  CA  LYS B   1       5.548  90.319  67.696  1.00  0.00     0.350 C 
BRANCH  68  69
ATOM     69  CB  LYS B   1       5.952  90.648  66.232  1.00  0.00     0.048 C 
BRANCH  69  70
ATOM     70  CG  LYS B   1       7.303  90.019  65.811  1.00  0.00     0.004 C 
BRANCH  70  71
ATOM     71  CD  LYS B   1       7.202  88.608  65.225  1.00  0.00     0.027 C 
BRANCH  71  72
ATOM     72  CE  LYS B   1       8.240  87.703  65.904  1.00  0.00     0.229 C 
BRANCH  72  73
ATOM     73  NZ  LYS B   1       9.397  87.528  65.008  1.00  0.00    -0.079 N 
ATOM     74  HZ1 LYS B   1       9.486  86.546  64.720  1.00  0.00     0.274 HD
ATOM     75  HZ2 LYS B   1       9.286  88.069  64.145  1.00  0.00     0.274 HD
ATOM     76  HZ3 LYS B   1      10.207  87.839  65.526  1.00  0.00     0.274 HD
ENDBRANCH  72  73
ENDBRANCH  71  72
ENDBRANCH  70  71
ENDBRANCH  69  70
ENDBRANCH  68  69
BRANCH  68  77
ATOM     77  N   LYS B   1       6.750  90.151  68.506  1.00  0.00     0.312 N 
ATOM     78  H   LYS B   1       7.137  91.109  68.776  1.00  0.00     0.359 HD
ENDBRANCH  68  77
ENDBRANCH  65  68
ENDBRANCH  63  64
BRANCH  63  79
ATOM     79  CB  TYR B   2       1.298  88.314  67.449  1.00  0.00     0.073 C 
BRANCH  79  80
ATOM     80  CG  TYR B   2       1.032  89.807  67.679  1.00  0.00    -0.056 A 
ATOM     81  CD1 TYR B   2       1.254  90.385  68.933  1.00  0.00     0.010 A 
ATOM     82  CE1 TYR B   2       1.024  91.744  69.126  1.00  0.00     0.037 A 
ATOM     83  CZ  TYR B   2       0.569  92.531  68.070  1.00  0.00     0.065 A 
ATOM     84  CE2 TYR B   2       0.343  91.960  66.819  1.00  0.00     0.037 A 
ATOM     85  CD2 TYR B   2       0.574  90.602  66.625  1.00  0.00     0.010 A 
BRANCH  83  86
ATOM     86  OH  TYR B   2       0.347  93.865  68.264  1.00  0.00    -0.361 OA
ATOM     87  HH  TYR B   2      -0.600  94.016  68.277  1.00  0.00     0.217 HD
ENDBRANCH  83  86
ENDBRANCH  79  80
ENDBRANCH  63  79
ENDBRANCH  60  63
ENDBRANCH  47  59
ENDBRANCH   1  47
TORSDOF 32
ENDMDL
MODEL 3
REMARK VINA RESULT:      -6.7      2.600      6.834
REMARK  32 active torsions:
REMARK  status: ('A' for Active; 'I' for Inactive)
REMARK    1  A    between atoms: N_1  and  CA_2 
REMARK    2  A    between atoms: CA_2  and  CB_5 
REMARK    3  A    between atoms: CA_2  and  C_3 
REMARK       I    between atoms: C_3  and  N_14 
REMARK    4  A    between atoms: CB_5  and  CG_6 
REMARK    5  A    between atoms: CG_6  and  CD_7 
REMARK    6  A    between atoms: CD_7  and  CE_8 
REMARK    7  A    between atoms: CE_8  and  NZ_9 
REMARK    8  A    between atoms: N_14  and  CA_15 
REMARK    9  A    between atoms: CA_15  and  C_16 
REMARK   10  A    between atoms: CA_15  and  CB_18 
REMARK       I    between atoms: C_16  and  N_41 
REMARK   11  A    between atoms: CB_18  and  CG_19 
REMARK   12  A    between atoms: CZ_24  and  OH_25 
REMARK   13  A    between atoms: CA_28  and  CB_30 
REMARK   14  A    between atoms: CA_28  and  C_29 
REMARK   15  A    between atoms: CA_28  and  N_41 
REMARK       I    between atoms: C_29  and  N_50 
REMARK   16  A    between atoms: CB_30  and  CG_31 
REMARK   17  A    between atoms: CA_44  and  N_50 
REMARK   18  A    between atoms: CA_44  and  CB_46 
REMARK   19  A    between atoms: CA_44  and  C_45 
REMARK       I    between atoms: C_45  and  N_60 
REMARK   20  A    between atoms: CB_46  and  CG_47 
REMARK   21  A    between atoms: CG_47  and  CD_48 
REMARK   22  A    between atoms: CA_54  and  C_55 
REMARK   23  A    between atoms: CA_54  and  N_60 
REMARK   24  A    between atoms: CA_54  and  CB_56 
REMARK       I    between atoms: C_55  and  N_76 
REMARK   25  A    between atoms: CB_56  and  OG1_62 
REMARK   26  A    between atoms: CA_63  and  CB_65 
REMARK   27  A    between atoms: CA_63  and  C_64 
REMARK   28  A    between atoms: CA_63  and  N_76 
REMARK       I    between atoms: C_64  and  N_85 
REMARK   29  A    between atoms: CB_65  and  CG_66 
REMARK   30  A    between atoms: CA_79  and  N_85 
REMARK   31  A    between atoms: CA_79  and  CB_81 
REMARK   32  A    between atoms: CA_79  and  C_80 
ROOT
ATOM      1  C   TRP B   3       4.135  88.086  61.685  1.00  0.00     0.241 C 
ATOM      2  O   TRP B   3       5.114  87.341  61.674  1.00  0.00    -0.271 OA
ATOM      3  H   GLU B   4       3.318  89.824  61.119  1.00  0.23     0.163 HD
ATOM      4  N   GLU B   4       4.125  89.269  61.078  1.00  0.00    -0.346 N 
ENDROOT
BRANCH   4   5
ATOM      5  CA  GLU B   4       5.294  89.762  60.354  1.00  0.00     0.177 C 
BRANCH   5   6
ATOM      6  CB  GLU B   4       5.074  89.656  58.844  1.00  0.00     0.045 C 
BRANCH   6   7
ATOM      7  CG  GLU B   4       6.306  89.192  58.085  1.00  0.00     0.116 C 
BRANCH   7   8
ATOM      8  CD  GLU B   4       7.028  88.052  58.778  1.00  0.00     0.172 C 
ATOM      9  OE1 GLU B   4       6.540  86.906  58.699  1.00  0.00    -0.648 OA
ATOM     10  OE2 GLU B   4       8.080  88.307  59.400  1.00  0.00    -0.648 OA
ENDBRANCH   7   8
ENDBRANCH   6   7
ENDBRANCH   5   6
BRANCH   5  11
ATOM     11  C   GLU B   4       5.597  91.209  60.730  1.00  0.00     0.241 C 
ATOM     12  O   GLU B   4       5.358  92.127  59.945  1.00  0.00    -0.271 OA
ATOM     13  N   THR B   5       6.127  91.403  61.934  1.00  7.70    -0.344 N 
ATOM     14  H   THR B   5       6.294  90.628  62.510  1.00  0.23     0.163 HD
BRANCH  13  15
ATOM     15  CA  THR B   5       6.470  92.736  62.421  1.00  7.88     0.205 C 
BRANCH  15  16
ATOM     16  C   THR B   5       7.982  92.932  62.432  1.00  7.05     0.243 C 
ATOM     17  O   THR B   5       8.526  93.684  61.623  1.00  6.06    -0.271 OA
ATOM     18  N   TRP B   6       8.656  92.255  63.355  1.00  0.00    -0.346 N 
ATOM     19  H   TRP B   6       8.168  91.672  63.973  1.00  0.23     0.163 HD
BRANCH  18  20
ATOM     20  CA  TRP B   6      10.105  92.359  63.472  1.00  0.00     0.181 C 
BRANCH  20  21
ATOM     21  CB  TRP B   6      10.487  93.676  64.149  1.00  0.00     0.075 C 
BRANCH  21  22
ATOM     22  CG  TRP B   6      11.546  94.430  63.405  1.00  0.00    -0.028 A 
ATOM     23  CD2 TRP B   6      12.940  94.106  63.336  1.00  0.00    -0.002 A 
ATOM     24  CE2 TRP B   6      13.554  95.079  62.525  1.00  0.00     0.042 A 
ATOM     25  CE3 TRP B   6      13.727  93.089  63.882  1.00  0.00     0.014 A 
ATOM     26  NE1 TRP B   6      12.578  95.953  62.120  1.00  0.00    -0.365 N 
ATOM     27  CZ2 TRP B   6      14.918  95.063  62.247  1.00  0.00     0.030 A 
ATOM     28  HE1 TRP B   6      12.716  96.734  61.543  1.00  0.23     0.165 HD
ATOM     29  CD1 TRP B   6      11.376  95.556  62.653  1.00  0.00     0.096 A 
ATOM     30  CH2 TRP B   6      15.666  94.057  62.795  1.00  0.00     0.002 A 
ATOM     31  CZ3 TRP B   6      15.082  93.075  63.605  1.00  0.00     0.001 A 
ENDBRANCH  21  22
ENDBRANCH  20  21
BRANCH  20  32
ATOM     32  C   TRP B   6      10.675  91.180  64.255  1.00  0.00     0.241 C 
ATOM     33  N   VAL B   7      10.708  91.318  65.577  1.00  6.11    -0.344 N 
ATOM     34  H   VAL B   7      10.373  92.146  65.978  1.00  0.23     0.163 HD
ATOM     35  O   TRP B   6      11.079  90.173  63.673  1.00  0.00    -0.271 OA
BRANCH  33  36
ATOM     36  CA  VAL B   7      11.231  90.269  66.443  1.00  5.65     0.189 C 
BRANCH  36  37
ATOM     37  CB  VAL B   7      12.648  90.613  66.942  1.00  1.15     0.010 C 
ATOM     38  CG1 VAL B   7      13.698  90.058  65.991  1.00  4.96     0.012 C 
ATOM     39  CG2 VAL B   7      12.810  92.117  67.106  1.00  9.83     0.012 C 
ENDBRANCH  36  37
BRANCH  36  40
ATOM     40  C   VAL B   7      10.319  90.043  67.646  1.00  4.44     0.197 C 
ATOM     41  O   VAL B   7      10.404  88.955  68.253  1.00  0.00    -0.646 OA
ATOM     42  OXT VAL B   7       9.530  90.953  67.970  1.00  0.00    -0.646 OA
ENDBRANCH  36  40
ENDBRANCH  33  36
ENDBRANCH  20  32
ENDBRANCH  18  20
ENDBRANCH  15  16
BRANCH  15  43
ATOM     43  CB  THR B   5       5.906  92.948  63.827  1.00  4.05     0.146 C 
ATOM     44  CG2 THR B   5       4.410  93.175  63.843  1.00  3.72     0.042 C 
BRANCH  43  45
ATOM     45  OG1 THR B   5       6.179  91.828  64.650  1.00  7.31    -0.393 OA
ATOM     46  HG1 THR B   5       6.094  91.024  64.134  1.00  0.23     0.210 HD
ENDBRANCH  43  45
ENDBRANCH  15  43
ENDBRANCH  13  15
ENDBRANCH   5  11
ENDBRANCH   4   5
BRANCH   1  47
ATOM     47  CA  TRP B   3       2.855  87.681  62.412  1.00  0.00     0.181 C 
BRANCH  47  48
ATOM     48  CB  TRP B   3       1.643  87.886  61.492  1.00  0.00     0.075 C 
BRANCH  48  49
ATOM     49  CG  TRP B   3       1.760  87.197  60.164  1.00  0.00    -0.028 A 
ATOM     50  CD2 TRP B   3       1.303  87.686  58.897  1.00  0.00    -0.002 A 
ATOM     51  CE2 TRP B   3       1.630  86.716  57.930  1.00  0.00     0.042 A 
ATOM     52  CE3 TRP B   3       0.647  88.851  58.485  1.00  0.00     0.014 A 
ATOM     53  CZ2 TRP B   3       1.324  86.874  56.581  1.00  0.00     0.030 A 
ATOM     54  NE1 TRP B   3       2.259  85.686  58.578  1.00  0.00    -0.365 N 
ATOM     55  CH2 TRP B   3       0.681  88.023  56.208  1.00  0.00     0.002 A 
ATOM     56  CZ3 TRP B   3       0.344  89.006  57.145  1.00  0.00     0.001 A 
ATOM     57  HE1 TRP B   3       2.600  84.869  58.157  1.00  0.23     0.165 HD
ATOM     58  CD1 TRP B   3       2.334  85.983  59.919  1.00  0.00     0.096 A 
ENDBRANCH  48  49
ENDBRANCH  47  48
BRANCH  47  59
ATOM     59  N   TRP B   3       2.700  88.426  63.658  1.00  0.00    -0.346 N 
ATOM     60  C   TYR B   2       2.287  87.835  64.789  1.00  0.00     0.241 C 
ATOM     61  O   TYR B   2       2.032  86.635  64.846  1.00  0.00    -0.271 OA
ATOM     62  H   TRP B   3       2.902  89.386  63.669  1.00  0.23     0.163 HD
BRANCH  60  63
ATOM     63  CA  TYR B   2       2.194  88.727  66.004  1.00  0.00     0.180 C 
BRANCH  63  64
ATOM     64  N   TYR B   2       2.259  87.942  67.234  1.00  0.00    -0.346 N 
ATOM     65  C   LYS B   1       1.332  88.063  68.190  1.00  0.00     0.254 C 
ATOM     66  O   LYS B   1       0.407  88.877  68.108  1.00  0.00    -0.271 OA
ATOM     67  H   TYR B   2       3.001  87.311  67.362  1.00  0.00     0.163 HD
BRANCH  65  68
ATOM     68  CA  LYS B   1       1.506  87.180  69.403  1.00  0.00     0.350 C 
BRANCH  68  69
ATOM     69  CB  LYS B   1       3.010  86.987  69.739  1.00  0.00     0.048 C 
BRANCH  69  70
ATOM     70  CG  LYS B   1       3.314  85.645  70.451  1.00  0.00     0.004 C 
BRANCH  70  71
ATOM     71  CD  LYS B   1       4.464  84.838  69.841  1.00  0.00     0.027 C 
BRANCH  71  72
ATOM     72  CE  LYS B   1       5.617  85.787  69.487  1.00  0.00     0.229 C 
BRANCH  72  73
ATOM     73  NZ  LYS B   1       6.214  86.315  70.725  1.00  0.00    -0.079 N 
ATOM     74  HZ1 LYS B   1       7.238  86.336  70.654  1.00  0.00     0.274 HD
ATOM     75  HZ2 LYS B   1       5.921  87.282  70.899  1.00  0.00     0.274 HD
ATOM     76  HZ3 LYS B   1       5.906  85.707  71.471  1.00  0.00     0.274 HD
ENDBRANCH  72  73
ENDBRANCH  71  72
ENDBRANCH  70  71
ENDBRANCH  69  70
ENDBRANCH  68  69
BRANCH  68  77
ATOM     77  N   LYS B   1       0.883  85.876  69.195  1.00  0.00     0.312 N 
ATOM     78  H   LYS B   1       0.745  85.709  68.150  1.00  0.00     0.359 HD
ENDBRANCH  68  77
ENDBRANCH  65  68
ENDBRANCH  63  64
BRANCH  63  79
ATOM     79  CB  TYR B   2       3.364  89.752  65.937  1.00  0.00     0.073 C 
BRANCH  79  80
ATOM     80  CG  TYR B   2       4.536  89.520  66.899  1.00  0.00    -0.056 A 
ATOM     81  CD1 TYR B   2       5.657  88.787  66.493  1.00  0.00     0.010 A 
ATOM     82  CE1 TYR B   2       6.721  88.596  67.369  1.00  0.00     0.037 A 
ATOM     83  CZ  TYR B   2       6.672  89.133  68.654  1.00  0.00     0.065 A 
ATOM     84  CE2 TYR B   2       5.557  89.861  69.065  1.00  0.00     0.037 A 
ATOM     85  CD2 TYR B   2       4.493  90.054  68.190  1.00  0.00     0.010 A 
BRANCH  83  86
ATOM     86  OH  TYR B   2       7.720  88.945  69.509  1.00  0.00    -0.361 OA
ATOM     87  HH  TYR B   2       8.371  89.630  69.346  1.00  0.00     0.217 HD
ENDBRANCH  83  86
ENDBRANCH  79  80
ENDBRANCH  63  79
ENDBRANCH  60  63
ENDBRANCH  47  59
ENDBRANCH   1  47
TORSDOF 32
ENDMDL
MODEL 4
REMARK VINA RESULT:      -5.3      2.279      6.466
REMARK  32 active torsions:
REMARK  status: ('A' for Active; 'I' for Inactive)
REMARK    1  A    between atoms: N_1  and  CA_2 
REMARK    2  A    between atoms: CA_2  and  CB_5 
REMARK    3  A    between atoms: CA_2  and  C_3 
REMARK       I    between atoms: C_3  and  N_14 
REMARK    4  A    between atoms: CB_5  and  CG_6 
REMARK    5  A    between atoms: CG_6  and  CD_7 
REMARK    6  A    between atoms: CD_7  and  CE_8 
REMARK    7  A    between atoms: CE_8  and  NZ_9 
REMARK    8  A    between atoms: N_14  and  CA_15 
REMARK    9  A    between atoms: CA_15  and  C_16 
REMARK   10  A    between atoms: CA_15  and  CB_18 
REMARK       I    between atoms: C_16  and  N_41 
REMARK   11  A    between atoms: CB_18  and  CG_19 
REMARK   12  A    between atoms: CZ_24  and  OH_25 
REMARK   13  A    between atoms: CA_28  and  CB_30 
REMARK   14  A    between atoms: CA_28  and  C_29 
REMARK   15  A    between atoms: CA_28  and  N_41 
REMARK       I    between atoms: C_29  and  N_50 
REMARK   16  A    between atoms: CB_30  and  CG_31 
REMARK   17  A    between atoms: CA_44  and  N_50 
REMARK   18  A    between atoms: CA_44  and  CB_46 
REMARK   19  A    between atoms: CA_44  and  C_45 
REMARK       I    between atoms: C_45  and  N_60 
REMARK   20  A    between atoms: CB_46  and  CG_47 
REMARK   21  A    between atoms: CG_47  and  CD_48 
REMARK   22  A    between atoms: CA_54  and  C_55 
REMARK   23  A    between atoms: CA_54  and  N_60 
REMARK   24  A    between atoms: CA_54  and  CB_56 
REMARK       I    between atoms: C_55  and  N_76 
REMARK   25  A    between atoms: CB_56  and  OG1_62 
REMARK   26  A    between atoms: CA_63  and  CB_65 
REMARK   27  A    between atoms: CA_63  and  C_64 
REMARK   28  A    between atoms: CA_63  and  N_76 
REMARK       I    between atoms: C_64  and  N_85 
REMARK   29  A    between atoms: CB_65  and  CG_66 
REMARK   30  A    between atoms: CA_79  and  N_85 
REMARK   31  A    between atoms: CA_79  and  CB_81 
REMARK   32  A    between atoms: CA_79  and  C_80 
ROOT
ATOM      1  C   TRP B   3       4.820  87.849  61.744  1.00  0.00     0.241 C 
ATOM      2  O   TRP B   3       5.813  87.922  62.466  1.00  0.00    -0.271 OA
ATOM      3  H   GLU B   4       3.988  88.215  59.959  1.00  0.23     0.163 HD
ATOM      4  N   GLU B   4       4.807  88.297  60.491  1.00  0.00    -0.346 N 
ENDROOT
BRANCH   4   5
ATOM      5  CA  GLU B   4       5.989  88.913  59.892  1.00  0.00     0.177 C 
BRANCH   5   6
ATOM      6  CB  GLU B   4       6.146  88.469  58.437  1.00  0.00     0.045 C 
BRANCH   6   7
ATOM      7  CG  GLU B   4       7.063  87.269  58.267  1.00  0.00     0.116 C 
BRANCH   7   8
ATOM      8  CD  GLU B   4       6.419  85.971  58.713  1.00  0.00     0.172 C 
ATOM      9  OE1 GLU B   4       7.135  85.114  59.271  1.00  0.00    -0.648 OA
ATOM     10  OE2 GLU B   4       5.198  85.812  58.504  1.00  0.00    -0.648 OA
ENDBRANCH   7   8
ENDBRANCH   6   7
ENDBRANCH   5   6
BRANCH   5  11
ATOM     11  C   GLU B   4       5.902  90.435  59.960  1.00  0.00     0.241 C 
ATOM     12  O   GLU B   4       5.207  91.063  59.161  1.00  0.00    -0.271 OA
ATOM     13  N   THR B   5       6.616  91.020  60.918  1.00  7.70    -0.344 N 
ATOM     14  H   THR B   5       7.151  90.462  61.521  1.00  0.23     0.163 HD
BRANCH  13  15
ATOM     15  CA  THR B   5       6.629  92.469  61.095  1.00  7.88     0.205 C 
BRANCH  15  16
ATOM     16  C   THR B   5       7.941  92.922  61.726  1.00  7.05     0.243 C 
ATOM     17  O   THR B   5       8.454  93.996  61.411  1.00  6.06    -0.271 OA
ATOM     18  N   TRP B   6       8.480  92.099  62.619  1.00  0.00    -0.346 N 
ATOM     19  H   TRP B   6       8.024  91.257  62.830  1.00  0.23     0.163 HD
BRANCH  18  20
ATOM     20  CA  TRP B   6       9.730  92.419  63.295  1.00  0.00     0.181 C 
BRANCH  20  21
ATOM     21  CB  TRP B   6       9.817  93.922  63.561  1.00  0.00     0.075 C 
BRANCH  21  22
ATOM     22  CG  TRP B   6      11.088  94.532  63.055  1.00  0.00    -0.028 A 
ATOM     23  CD2 TRP B   6      12.420  94.063  63.298  1.00  0.00    -0.002 A 
ATOM     24  CE2 TRP B   6      13.298  94.934  62.625  1.00  0.00     0.042 A 
ATOM     25  CE3 TRP B   6      12.954  92.992  64.020  1.00  0.00     0.014 A 
ATOM     26  NE1 TRP B   6      12.535  95.888  62.002  1.00  0.00    -0.365 N 
ATOM     27  CZ2 TRP B   6      14.679  94.765  62.653  1.00  0.00     0.030 A 
ATOM     28  HE1 TRP B   6      12.879  96.627  61.458  1.00  0.23     0.165 HD
ATOM     29  CD1 TRP B   6      11.210  95.639  62.265  1.00  0.00     0.096 A 
ATOM     30  CH2 TRP B   6      15.176  93.709  63.368  1.00  0.00     0.002 A 
ATOM     31  CZ3 TRP B   6      14.327  92.826  64.046  1.00  0.00     0.001 A 
ENDBRANCH  21  22
ENDBRANCH  20  21
BRANCH  20  32
ATOM     32  C   TRP B   6       9.855  91.645  64.604  1.00  0.00     0.241 C 
ATOM     33  N   VAL B   7      10.306  90.399  64.505  1.00  6.11    -0.344 N 
ATOM     34  H   VAL B   7      10.533  90.042  63.622  1.00  0.23     0.163 HD
ATOM     35  O   TRP B   6       9.546  92.166  65.677  1.00  0.00    -0.271 OA
BRANCH  33  36
ATOM     36  CA  VAL B   7      10.471  89.549  65.678  1.00  5.65     0.189 C 
BRANCH  36  37
ATOM     37  CB  VAL B   7      11.026  90.348  66.872  1.00  1.15     0.010 C 
ATOM     38  CG1 VAL B   7      10.819  89.582  68.171  1.00  4.96     0.012 C 
ATOM     39  CG2 VAL B   7      12.499  90.670  66.665  1.00  9.83     0.012 C 
ENDBRANCH  36  37
BRANCH  36  40
ATOM     40  C   VAL B   7       9.147  88.905  66.081  1.00  4.44     0.197 C 
ATOM     41  O   VAL B   7       8.757  87.908  65.438  1.00  0.00    -0.646 OA
ATOM     42  OXT VAL B   7       8.513  89.402  67.034  1.00  0.00    -0.646 OA
ENDBRANCH  36  40
ENDBRANCH  33  36
ENDBRANCH  20  32
ENDBRANCH  18  20
ENDBRANCH  15  16
BRANCH  15  43
ATOM     43  CB  THR B   5       5.452  92.907  61.969  1.00  4.05     0.146 C 
ATOM     44  CG2 THR B   5       4.440  91.806  62.203  1.00  3.72     0.042 C 
BRANCH  43  45
ATOM     45  OG1 THR B   5       5.906  93.349  63.235  1.00  7.31    -0.393 OA
ATOM     46  HG1 THR B   5       5.224  93.880  63.652  1.00  0.23     0.210 HD
ENDBRANCH  43  45
ENDBRANCH  15  43
ENDBRANCH  13  15
ENDBRANCH   5  11
ENDBRANCH   4   5
BRANCH   1  47
ATOM     47  CA  TRP B   3       3.525  87.228  62.259  1.00  0.00     0.181 C 
BRANCH  47  48
ATOM     48  CB  TRP B   3       2.665  86.752  61.079  1.00  0.00     0.075 C 
BRANCH  48  49
ATOM     49  CG  TRP B   3       1.877  85.506  61.360  1.00  0.00    -0.028 A 
ATOM     50  CD2 TRP B   3       2.355  84.308  61.983  1.00  0.00    -0.002 A 
ATOM     51  CE2 TRP B   3       1.272  83.410  62.049  1.00  0.00     0.042 A 
ATOM     52  CE3 TRP B   3       3.594  83.904  62.491  1.00  0.00     0.014 A 
ATOM     53  CZ2 TRP B   3       1.391  82.136  62.600  1.00  0.00     0.030 A 
ATOM     54  NE1 TRP B   3       0.186  84.033  61.494  1.00  0.00    -0.365 N 
ATOM     55  CH2 TRP B   3       2.616  81.770  63.088  1.00  0.00     0.002 A 
ATOM     56  CZ3 TRP B   3       3.711  82.640  63.038  1.00  0.00     0.001 A 
ATOM     57  HE1 TRP B   3      -0.710  83.647  61.403  1.00  0.23     0.165 HD
ATOM     58  CD1 TRP B   3       0.557  85.293  61.084  1.00  0.00     0.096 A 
ENDBRANCH  48  49
ENDBRANCH  47  48
BRANCH  47  59
ATOM     59  N   TRP B   3       2.788  88.169  63.098  1.00  0.00    -0.346 N 
ATOM     60  C   TYR B   2       2.356  87.836  64.324  1.00  0.00     0.241 C 
ATOM     61  O   TYR B   2       2.568  86.730  64.815  1.00  0.00    -0.271 OA
ATOM     62  H   TRP B   3       2.602  89.070  62.757  1.00  0.23     0.163 HD
BRANCH  60  63
ATOM     63  CA  TYR B   2       1.627  88.918  65.084  1.00  0.00     0.180 C 
BRANCH  63  64
ATOM     64  N   TYR B   2       1.811  88.759  66.524  1.00  0.00    -0.346 N 
ATOM     65  C   LYS B   1       0.954  88.051  67.264  1.00  0.00     0.254 C 
ATOM     66  O   LYS B   1      -0.062  87.539  66.783  1.00  0.00    -0.271 OA
ATOM     67  H   TYR B   2       2.584  89.184  66.958  1.00  0.00     0.163 HD
BRANCH  65  68
ATOM     68  CA  LYS B   1       1.270  87.949  68.738  1.00  0.00     0.350 C 
BRANCH  68  69
ATOM     69  CB  LYS B   1       2.597  88.682  69.073  1.00  0.00     0.048 C 
BRANCH  69  70
ATOM     70  CG  LYS B   1       3.834  88.067  68.372  1.00  0.00     0.004 C 
BRANCH  70  71
ATOM     71  CD  LYS B   1       4.177  86.639  68.807  1.00  0.00     0.027 C 
BRANCH  71  72
ATOM     72  CE  LYS B   1       5.703  86.472  68.835  1.00  0.00     0.229 C 
BRANCH  72  73
ATOM     73  NZ  LYS B   1       6.323  87.481  67.960  1.00  0.00    -0.079 N 
ATOM     74  HZ1 LYS B   1       5.944  87.417  67.007  1.00  0.00     0.274 HD
ATOM     75  HZ2 LYS B   1       6.119  88.433  68.284  1.00  0.00     0.274 HD
ATOM     76  HZ3 LYS B   1       7.316  87.301  67.977  1.00  0.00     0.274 HD
ENDBRANCH  72  73
ENDBRANCH  71  72
ENDBRANCH  70  71
ENDBRANCH  69  70
ENDBRANCH  68  69
BRANCH  68  77
ATOM     77  N   LYS B   1       1.366  86.554  69.157  1.00  0.00     0.312 N 
ATOM     78  H   LYS B   1       0.392  86.182  69.388  1.00  0.00     0.359 HD
ENDBRANCH  68  77
ENDBRANCH  65  68
ENDBRANCH  63  64
BRANCH  63  79
ATOM     79  CB  TYR B   2       2.175  90.294  64.603  1.00  0.00     0.073 C 
BRANCH  79  80
ATOM     80  CG  TYR B   2       3.500  90.759  65.219  1.00  0.00    -0.056 A 
ATOM     81  CD1 TYR B   2       4.606  89.904  65.259  1.00  0.00     0.010 A 
ATOM     82  CE1 TYR B   2       5.808  90.343  65.806  1.00  0.00     0.037 A 
ATOM     83  CZ  TYR B   2       5.911  91.635  66.318  1.00  0.00     0.065 A 
ATOM     84  CE2 TYR B   2       4.812  92.490  66.282  1.00  0.00     0.037 A 
ATOM     85  CD2 TYR B   2       3.610  92.054  65.735  1.00  0.00     0.010 A 
BRANCH  83  86
ATOM     86  OH  TYR B   2       7.094  92.061  66.852  1.00  0.00    -0.361 OA
ATOM     87  HH  TYR B   2       7.686  92.291  66.132  1.00  0.00     0.217 HD
ENDBRANCH  83  86
ENDBRANCH  79  80
ENDBRANCH  63  79
ENDBRANCH  60  63
ENDBRANCH  47  59
ENDBRANCH   1  47
TORSDOF 32
ENDMDL
