MODEL 1
REMARK VINA RESULT:      -9.2      0.000      0.000
REMARK  29 active torsions:
REMARK  status: ('A' for Active; 'I' for Inactive)
REMARK    1  A    between atoms: N_1  and  CA_2 
REMARK    2  A    between atoms: CA_2  and  CB_5 
REMARK    3  A    between atoms: CA_2  and  C_3 
REMARK       I    between atoms: C_3  and  N_14 
REMARK    4  A    between atoms: CB_5  and  CG_6 
REMARK    5  A    between atoms: CG_6  and  CD_7 
REMARK    6  A    between atoms: CD_7  and  CE_8 
REMARK    7  A    between atoms: CE_8  and  NZ_9 
REMARK    8  A    between atoms: N_14  and  CA_15 
REMARK    9  A    between atoms: CA_15  and  C_16 
REMARK       I    between atoms: C_16  and  N_32 
REMARK   10  A    between atoms: CA_19  and  CB_21 
REMARK   11  A    between atoms: CA_19  and  N_32 
REMARK   12  A    between atoms: CA_19  and  C_20 
REMARK       I    between atoms: C_20  and  N_41 
REMARK   13  A    between atoms: CB_21  and  CG_22 
REMARK   14  A    between atoms: CA_35  and  N_41 
REMARK   15  A    between atoms: CA_35  and  CB_37 
REMARK   16  A    between atoms: CA_35  and  C_36 
REMARK       I    between atoms: C_36  and  N_51 
REMARK   17  A    between atoms: CB_37  and  CG_38 
REMARK   18  A    between atoms: CG_38  and  CD_39 
REMARK   19  A    between atoms: CA_45  and  N_51 
REMARK   20  A    between atoms: CA_45  and  CB_47 
REMARK   21  A    between atoms: CA_45  and  C_46 
REMARK       I    between atoms: C_46  and  N_67 
REMARK   22  A    between atoms: CB_47  and  OG1_53 
REMARK   23  A    between atoms: CA_54  and  CB_56 
REMARK   24  A    between atoms: CA_54  and  N_67 
REMARK   25  A    between atoms: CA_54  and  C_55 
REMARK       I    between atoms: C_55  and  N_76 
REMARK   26  A    between atoms: CB_56  and  CG_57 
REMARK   27  A    between atoms: CA_70  and  N_76 
REMARK   28  A    between atoms: CA_70  and  CB_72 
REMARK   29  A    between atoms: CA_70  and  C_71 
ROOT
ATOM      1  CA  GLU B   4       9.405  92.724  63.508  1.00  0.00     0.177 C 
ENDROOT
BRANCH   1   2
ATOM      2  N   GLU B   4      10.394  93.459  62.723  1.00  0.00    -0.346 N 
ATOM      3  H   GLU B   4      10.839  93.012  61.973  1.00  0.23     0.163 HD
ATOM      4  C   TRP B   3      10.705  94.720  63.009  1.00  0.00     0.241 C 
ATOM      5  O   TRP B   3      10.186  95.340  63.936  1.00  0.00    -0.271 OA
BRANCH   4   6
ATOM      6  CA  TRP B   3      11.754  95.382  62.120  1.00  0.00     0.181 C 
BRANCH   6   7
ATOM      7  CB  TRP B   3      13.002  95.724  62.947  1.00  0.00     0.075 C 
BRANCH   7   8
ATOM      8  CG  TRP B   3      14.068  94.669  62.909  1.00  0.00    -0.028 A 
ATOM      9  CD2 TRP B   3      14.060  93.412  63.597  1.00  0.00    -0.002 A 
ATOM     10  CE2 TRP B   3      15.254  92.745  63.264  1.00  0.00     0.042 A 
ATOM     11  CE3 TRP B   3      13.160  92.786  64.465  1.00  0.00     0.014 A 
ATOM     12  NE1 TRP B   3      15.955  93.556  62.410  1.00  0.00    -0.365 N 
ATOM     13  CZ2 TRP B   3      15.571  91.485  63.768  1.00  0.00     0.030 A 
ATOM     14  HE1 TRP B   3      16.827  93.351  62.013  1.00  0.23     0.165 HD
ATOM     15  CD1 TRP B   3      15.235  94.709  62.201  1.00  0.00     0.096 A 
ATOM     16  CH2 TRP B   3      14.672  90.898  64.615  1.00  0.00     0.002 A 
ATOM     17  CZ3 TRP B   3      13.476  91.536  64.964  1.00  0.00     0.001 A 
ENDBRANCH   7   8
ENDBRANCH   6   7
BRANCH   6  18
ATOM     18  N   TRP B   3      11.215  96.573  61.468  1.00  0.00    -0.346 N 
ATOM     19  H   TRP B   3      10.373  96.956  61.793  1.00  0.23     0.163 HD
ATOM     20  C   GLY B   2      11.839  97.158  60.434  1.00  0.00     0.236 C 
ATOM     21  O   GLY B   2      12.888  96.719  59.969  1.00  0.00    -0.272 OA
BRANCH  20  22
ATOM     22  CA  GLY B   2      11.153  98.368  59.847  1.00  0.00     0.225 C 
BRANCH  22  23
ATOM     23  N   GLY B   2      11.992  99.005  58.836  1.00  0.00    -0.350 N 
ATOM     24  C   LYS B   1      11.462  99.658  57.798  1.00  0.00     0.254 C 
ATOM     25  O   LYS B   1      10.242  99.713  57.611  1.00  0.00    -0.271 OA
ATOM     26  H   GLY B   2      12.970  98.950  58.921  1.00  0.00     0.163 HD
BRANCH  24  27
ATOM     27  CA  LYS B   1      12.441 100.288  56.834  1.00  0.00     0.350 C 
BRANCH  27  28
ATOM     28  CB  LYS B   1      12.102  99.902  55.368  1.00  0.00     0.048 C 
BRANCH  28  29
ATOM     29  CG  LYS B   1      13.180 100.350  54.349  1.00  0.00     0.004 C 
BRANCH  29  30
ATOM     30  CD  LYS B   1      13.169  99.585  53.023  1.00  0.00     0.027 C 
BRANCH  30  31
ATOM     31  CE  LYS B   1      14.610  99.232  52.630  1.00  0.00     0.229 C 
BRANCH  31  32
ATOM     32  NZ  LYS B   1      14.992  99.994  51.429  1.00  0.00    -0.079 N 
ATOM     33  HZ1 LYS B   1      15.110 100.989  51.654  1.00  0.00     0.274 HD
ATOM     34  HZ2 LYS B   1      15.892  99.677  51.056  1.00  0.00     0.274 HD
ATOM     35  HZ3 LYS B   1      14.253  99.851  50.755  1.00  0.00     0.274 HD
ENDBRANCH  31  32
ENDBRANCH  30  31
ENDBRANCH  29  30
ENDBRANCH  28  29
ENDBRANCH  27  28
BRANCH  27  36
ATOM     36  N   LYS B   1      13.810  99.882  57.140  1.00  0.00     0.312 N 
ATOM     37  H   LYS B   1      13.829  98.843  57.383  1.00  0.00     0.359 HD
ENDBRANCH  27  36
ENDBRANCH  24  27
ENDBRANCH  22  23
ENDBRANCH  20  22
ENDBRANCH   6  18
ENDBRANCH   4   6
ENDBRANCH   1   2
BRANCH   1  38
ATOM     38  CB  GLU B   4       9.516  93.089  64.989  1.00  0.00     0.045 C 
BRANCH  38  39
ATOM     39  CG  GLU B   4       9.809  91.897  65.885  1.00  0.00     0.116 C 
BRANCH  39  40
ATOM     40  CD  GLU B   4       8.591  91.433  66.661  1.00  0.00     0.172 C 
ATOM     41  OE2 GLU B   4       8.652  90.341  67.264  1.00  0.00    -0.648 OA
ATOM     42  OE1 GLU B   4       7.578  92.162  66.665  1.00  0.00    -0.648 OA
ENDBRANCH  39  40
ENDBRANCH  38  39
ENDBRANCH   1  38
BRANCH   1  43
ATOM     43  C   GLU B   4       7.992  93.014  63.011  1.00  0.00     0.241 C 
ATOM     44  N   THR B   5       7.765  92.781  61.722  1.00  7.70    -0.344 N 
ATOM     45  H   THR B   5       8.497  92.443  61.164  1.00  0.23     0.163 HD
ATOM     46  O   GLU B   4       7.128  93.436  63.780  1.00  0.00    -0.271 OA
BRANCH  44  47
ATOM     47  CA  THR B   5       6.458  93.011  61.114  1.00  7.88     0.205 C 
BRANCH  47  48
ATOM     48  CB  THR B   5       6.611  93.785  59.804  1.00  4.05     0.146 C 
ATOM     49  CG2 THR B   5       5.567  94.865  59.622  1.00  3.72     0.042 C 
BRANCH  48  50
ATOM     50  OG1 THR B   5       7.884  94.403  59.733  1.00  7.31    -0.393 OA
ATOM     51  HG1 THR B   5       7.836  95.169  59.158  1.00  0.23     0.210 HD
ENDBRANCH  48  50
ENDBRANCH  47  48
BRANCH  47  52
ATOM     52  C   THR B   5       5.744  91.688  60.856  1.00  7.05     0.243 C 
ATOM     53  N   TRP B   6       6.067  90.679  61.659  1.00  0.00    -0.346 N 
ATOM     54  H   TRP B   6       6.732  90.823  62.364  1.00  0.23     0.163 HD
ATOM     55  O   THR B   5       4.921  91.583  59.948  1.00  6.06    -0.271 OA
BRANCH  53  56
ATOM     56  CA  TRP B   6       5.460  89.363  61.513  1.00  0.00     0.181 C 
BRANCH  56  57
ATOM     57  CB  TRP B   6       6.537  88.310  61.249  1.00  0.00     0.075 C 
BRANCH  57  58
ATOM     58  CG  TRP B   6       6.621  87.909  59.808  1.00  0.00    -0.028 A 
ATOM     59  CD2 TRP B   6       6.874  86.594  59.299  1.00  0.00    -0.002 A 
ATOM     60  CE2 TRP B   6       6.857  86.681  57.894  1.00  0.00     0.042 A 
ATOM     61  CE3 TRP B   6       7.114  85.353  59.894  1.00  0.00     0.014 A 
ATOM     62  CZ2 TRP B   6       7.070  85.574  57.077  1.00  0.00     0.030 A 
ATOM     63  NE1 TRP B   6       6.605  87.988  57.565  1.00  0.00    -0.365 N 
ATOM     64  CH2 TRP B   6       7.303  84.371  57.686  1.00  0.00     0.002 A 
ATOM     65  CZ3 TRP B   6       7.326  84.254  59.081  1.00  0.00     0.001 A 
ATOM     66  HE1 TRP B   6       6.536  88.344  56.654  1.00  0.23     0.165 HD
ATOM     67  CD1 TRP B   6       6.465  88.718  58.720  1.00  0.00     0.096 A 
ENDBRANCH  57  58
ENDBRANCH  56  57
BRANCH  56  68
ATOM     68  C   TRP B   6       4.656  88.993  62.756  1.00  0.00     0.241 C 
ATOM     69  N   VAL B   7       4.121  90.007  63.429  1.00  6.11    -0.344 N 
ATOM     70  H   VAL B   7       4.261  90.921  63.106  1.00  0.23     0.163 HD
ATOM     71  O   TRP B   6       4.528  87.817  63.097  1.00  0.00    -0.271 OA
BRANCH  69  72
ATOM     72  CA  VAL B   7       3.333  89.794  64.636  1.00  5.65     0.189 C 
BRANCH  72  73
ATOM     73  CB  VAL B   7       3.649  90.859  65.704  1.00  1.15     0.010 C 
ATOM     74  CG1 VAL B   7       4.616  90.305  66.740  1.00  4.96     0.012 C 
ATOM     75  CG2 VAL B   7       4.212  92.117  65.058  1.00  9.83     0.012 C 
ENDBRANCH  72  73
BRANCH  72  76
ATOM     76  C   VAL B   7       1.838  89.823  64.330  1.00  4.44     0.197 C 
ATOM     77  OXT VAL B   7       1.077  90.375  65.149  1.00  0.00    -0.646 OA
ATOM     78  O   VAL B   7       1.443  89.292  63.271  1.00  0.00    -0.646 OA
ENDBRANCH  72  76
ENDBRANCH  69  72
ENDBRANCH  56  68
ENDBRANCH  53  56
ENDBRANCH  47  52
ENDBRANCH  44  47
ENDBRANCH   1  43
TORSDOF 29
ENDMDL
MODEL 2
REMARK VINA RESULT:      -8.6      1.655      2.183
REMARK  29 active torsions:
REMARK  status: ('A' for Active; 'I' for Inactive)
REMARK    1  A    between atoms: N_1  and  CA_2 
REMARK    2  A    between atoms: CA_2  and  CB_5 
REMARK    3  A    between atoms: CA_2  and  C_3 
REMARK       I    between atoms: C_3  and  N_14 
REMARK    4  A    between atoms: CB_5  and  CG_6 
REMARK    5  A    between atoms: CG_6  and  CD_7 
REMARK    6  A    between atoms: CD_7  and  CE_8 
REMARK    7  A    between atoms: CE_8  and  NZ_9 
REMARK    8  A    between atoms: N_14  and  CA_15 
REMARK    9  A    between atoms: CA_15  and  C_16 
REMARK       I    between atoms: C_16  and  N_32 
REMARK   10  A    between atoms: CA_19  and  CB_21 
REMARK   11  A    between atoms: CA_19  and  N_32 
REMARK   12  A    between atoms: CA_19  and  C_20 
REMARK       I    between atoms: C_20  and  N_41 
REMARK   13  A    between atoms: CB_21  and  CG_22 
REMARK   14  A    between atoms: CA_35  and  N_41 
REMARK   15  A    between atoms: CA_35  and  CB_37 
REMARK   16  A    between atoms: CA_35  and  C_36 
REMARK       I    between atoms: C_36  and  N_51 
REMARK   17  A    between atoms: CB_37  and  CG_38 
REMARK   18  A    between atoms: CG_38  and  CD_39 
REMARK   19  A    between atoms: CA_45  and  N_51 
REMARK   20  A    between atoms: CA_45  and  CB_47 
REMARK   21  A    between atoms: CA_45  and  C_46 
REMARK       I    between atoms: C_46  and  N_67 
REMARK   22  A    between atoms: CB_47  and  OG1_53 
REMARK   23  A    between atoms: CA_54  and  CB_56 
REMARK   24  A    between atoms: CA_54  and  N_67 
REMARK   25  A    between atoms: CA_54  and  C_55 
REMARK       I    between atoms: C_55  and  N_76 
REMARK   26  A    between atoms: CB_56  and  CG_57 
REMARK   27  A    between atoms: CA_70  and  N_76 
REMARK   28  A    between atoms: CA_70  and  CB_72 
REMARK   29  A    between atoms: CA_70  and  C_71 
ROOT
ATOM      1  CA  GLU B   4       9.592  92.655  63.740  1.00  0.00     0.177 C 
ENDROOT
BRANCH   1   2
ATOM      2  N   GLU B   4      10.564  93.387  62.931  1.00  0.00    -0.346 N 
ATOM      3  H   GLU B   4      11.081  92.906  62.252  1.00  0.23     0.163 HD
ATOM      4  C   TRP B   3      10.761  94.692  63.099  1.00  0.00     0.241 C 
ATOM      5  O   TRP B   3      10.147  95.356  63.933  1.00  0.00    -0.271 OA
BRANCH   4   6
ATOM      6  CA  TRP B   3      11.804  95.346  62.197  1.00  0.00     0.181 C 
BRANCH   6   7
ATOM      7  CB  TRP B   3      13.053  95.705  63.014  1.00  0.00     0.075 C 
BRANCH   7   8
ATOM      8  CG  TRP B   3      14.164  94.702  62.907  1.00  0.00    -0.028 A 
ATOM      9  CD2 TRP B   3      14.235  93.425  63.554  1.00  0.00    -0.002 A 
ATOM     10  CE2 TRP B   3      15.446  92.824  63.160  1.00  0.00     0.042 A 
ATOM     11  CE3 TRP B   3      13.394  92.731  64.429  1.00  0.00     0.014 A 
ATOM     12  NE1 TRP B   3      16.080  93.692  62.311  1.00  0.00    -0.365 N 
ATOM     13  CZ2 TRP B   3      15.836  91.565  63.611  1.00  0.00     0.030 A 
ATOM     14  HE1 TRP B   3      16.947  93.540  61.879  1.00  0.23     0.165 HD
ATOM     15  CD1 TRP B   3      15.303  94.817  62.163  1.00  0.00     0.096 A 
ATOM     16  CH2 TRP B   3      14.993  90.911  64.468  1.00  0.00     0.002 A 
ATOM     17  CZ3 TRP B   3      13.782  91.482  64.877  1.00  0.00     0.001 A 
ENDBRANCH   7   8
ENDBRANCH   6   7
BRANCH   6  18
ATOM     18  N   TRP B   3      11.257  96.524  61.529  1.00  0.00    -0.346 N 
ATOM     19  H   TRP B   3      10.421  96.916  61.861  1.00  0.23     0.163 HD
ATOM     20  C   GLY B   2      11.865  97.086  60.474  1.00  0.00     0.236 C 
ATOM     21  O   GLY B   2      12.905  96.635  60.001  1.00  0.00    -0.272 OA
BRANCH  20  22
ATOM     22  CA  GLY B   2      11.172  98.285  59.874  1.00  0.00     0.225 C 
BRANCH  22  23
ATOM     23  N   GLY B   2      11.983  98.881  58.815  1.00  0.00    -0.350 N 
ATOM     24  C   LYS B   1      11.591  99.985  58.172  1.00  0.00     0.254 C 
ATOM     25  O   LYS B   1      10.505 100.528  58.401  1.00  0.00    -0.271 OA
ATOM     26  H   GLY B   2      12.836  98.459  58.570  1.00  0.00     0.163 HD
BRANCH  24  27
ATOM     27  CA  LYS B   1      12.531 100.509  57.112  1.00  0.00     0.350 C 
BRANCH  27  28
ATOM     28  CB  LYS B   1      12.134  99.979  55.707  1.00  0.00     0.048 C 
BRANCH  28  29
ATOM     29  CG  LYS B   1      13.260 100.125  54.653  1.00  0.00     0.004 C 
BRANCH  29  30
ATOM     30  CD  LYS B   1      12.964  99.472  53.300  1.00  0.00     0.027 C 
BRANCH  30  31
ATOM     31  CE  LYS B   1      14.282  99.260  52.541  1.00  0.00     0.229 C 
BRANCH  31  32
ATOM     32  NZ  LYS B   1      15.200 100.373  52.836  1.00  0.00    -0.079 N 
ATOM     33  HZ1 LYS B   1      14.777 101.025  53.507  1.00  0.00     0.274 HD
ATOM     34  HZ2 LYS B   1      16.066 100.039  53.271  1.00  0.00     0.274 HD
ATOM     35  HZ3 LYS B   1      15.393 100.824  51.952  1.00  0.00     0.274 HD
ENDBRANCH  31  32
ENDBRANCH  30  31
ENDBRANCH  29  30
ENDBRANCH  28  29
ENDBRANCH  27  28
BRANCH  27  36
ATOM     36  N   LYS B   1      13.911 100.131  57.402  1.00  0.00     0.312 N 
ATOM     37  H   LYS B   1      13.922  99.224  57.965  1.00  0.00     0.359 HD
ENDBRANCH  27  36
ENDBRANCH  24  27
ENDBRANCH  22  23
ENDBRANCH  20  22
ENDBRANCH   6  18
ENDBRANCH   4   6
ENDBRANCH   1   2
BRANCH   1  38
ATOM     38  CB  GLU B   4       9.794  92.959  65.225  1.00  0.00     0.045 C 
BRANCH  38  39
ATOM     39  CG  GLU B   4       9.437  91.794  66.134  1.00  0.00     0.116 C 
BRANCH  39  40
ATOM     40  CD  GLU B   4      10.499  90.711  66.143  1.00  0.00     0.172 C 
ATOM     41  OE2 GLU B   4      10.662  90.031  65.108  1.00  0.00    -0.648 OA
ATOM     42  OE1 GLU B   4      11.167  90.543  67.184  1.00  0.00    -0.648 OA
ENDBRANCH  39  40
ENDBRANCH  38  39
ENDBRANCH   1  38
BRANCH   1  43
ATOM     43  C   GLU B   4       8.166  93.011  63.331  1.00  0.00     0.241 C 
ATOM     44  N   THR B   5       7.835  92.749  62.070  1.00  7.70    -0.344 N 
ATOM     45  H   THR B   5       8.506  92.350  61.476  1.00  0.23     0.163 HD
ATOM     46  O   GLU B   4       7.383  93.509  64.141  1.00  0.00    -0.271 OA
BRANCH  44  47
ATOM     47  CA  THR B   5       6.504  93.035  61.545  1.00  7.88     0.205 C 
BRANCH  47  48
ATOM     48  CB  THR B   5       6.590  93.448  60.075  1.00  4.05     0.146 C 
ATOM     49  CG2 THR B   5       5.599  94.528  59.698  1.00  3.72     0.042 C 
BRANCH  48  50
ATOM     50  OG1 THR B   5       7.886  93.928  59.765  1.00  7.31    -0.393 OA
ATOM     51  HG1 THR B   5       7.863  94.394  58.926  1.00  0.23     0.210 HD
ENDBRANCH  48  50
ENDBRANCH  47  48
BRANCH  47  52
ATOM     52  C   THR B   5       5.595  91.819  61.691  1.00  7.05     0.243 C 
ATOM     53  N   TRP B   6       6.186  90.683  62.045  1.00  0.00    -0.346 N 
ATOM     54  H   TRP B   6       7.155  90.673  62.195  1.00  0.23     0.163 HD
ATOM     55  O   THR B   5       4.385  91.907  61.485  1.00  6.06    -0.271 OA
BRANCH  53  56
ATOM     56  CA  TRP B   6       5.429  89.449  62.214  1.00  0.00     0.181 C 
BRANCH  56  57
ATOM     57  CB  TRP B   6       6.241  88.257  61.704  1.00  0.00     0.075 C 
BRANCH  57  58
ATOM     58  CG  TRP B   6       5.619  87.592  60.515  1.00  0.00    -0.028 A 
ATOM     59  CD2 TRP B   6       4.379  86.874  60.487  1.00  0.00    -0.002 A 
ATOM     60  CE2 TRP B   6       4.186  86.429  59.165  1.00  0.00     0.042 A 
ATOM     61  CE3 TRP B   6       3.417  86.562  61.451  1.00  0.00     0.014 A 
ATOM     62  CZ2 TRP B   6       3.068  85.692  58.785  1.00  0.00     0.030 A 
ATOM     63  NE1 TRP B   6       5.257  86.858  58.425  1.00  0.00    -0.365 N 
ATOM     64  CH2 TRP B   6       2.141  85.400  59.749  1.00  0.00     0.002 A 
ATOM     65  CZ3 TRP B   6       2.307  85.829  61.071  1.00  0.00     0.001 A 
ATOM     66  HE1 TRP B   6       5.391  86.694  57.468  1.00  0.23     0.165 HD
ATOM     67  CD1 TRP B   6       6.112  87.556  59.243  1.00  0.00     0.096 A 
ENDBRANCH  57  58
ENDBRANCH  56  57
BRANCH  56  68
ATOM     68  C   TRP B   6       5.049  89.239  63.676  1.00  0.00     0.241 C 
ATOM     69  N   VAL B   7       6.024  89.408  64.564  1.00  6.11    -0.344 N 
ATOM     70  H   VAL B   7       6.918  89.655  64.250  1.00  0.23     0.163 HD
ATOM     71  O   TRP B   6       3.900  88.926  63.991  1.00  0.00    -0.271 OA
BRANCH  69  72
ATOM     72  CA  VAL B   7       5.797  89.235  65.993  1.00  5.65     0.189 C 
BRANCH  72  73
ATOM     73  CB  VAL B   7       7.082  88.776  66.710  1.00  1.15     0.010 C 
ATOM     74  CG1 VAL B   7       6.741  87.919  67.921  1.00  4.96     0.012 C 
ATOM     75  CG2 VAL B   7       7.991  88.020  65.753  1.00  9.83     0.012 C 
ENDBRANCH  72  73
BRANCH  72  76
ATOM     76  C   VAL B   7       5.303  90.529  66.634  1.00  4.44     0.197 C 
ATOM     77  OXT VAL B   7       4.315  90.474  67.394  1.00  0.00    -0.646 OA
ATOM     78  O   VAL B   7       5.912  91.587  66.369  1.00  0.00    -0.646 OA
ENDBRANCH  72  76
ENDBRANCH  69  72
ENDBRANCH  56  68
ENDBRANCH  53  56
ENDBRANCH  47  52
ENDBRANCH  44  47
ENDBRANCH   1  43
TORSDOF 29
ENDMDL
MODEL 3
REMARK VINA RESULT:      -8.5      3.703      6.716
REMARK  29 active torsions:
REMARK  status: ('A' for Active; 'I' for Inactive)
REMARK    1  A    between atoms: N_1  and  CA_2 
REMARK    2  A    between atoms: CA_2  and  CB_5 
REMARK    3  A    between atoms: CA_2  and  C_3 
REMARK       I    between atoms: C_3  and  N_14 
REMARK    4  A    between atoms: CB_5  and  CG_6 
REMARK    5  A    between atoms: CG_6  and  CD_7 
REMARK    6  A    between atoms: CD_7  and  CE_8 
REMARK    7  A    between atoms: CE_8  and  NZ_9 
REMARK    8  A    between atoms: N_14  and  CA_15 
REMARK    9  A    between atoms: CA_15  and  C_16 
REMARK       I    between atoms: C_16  and  N_32 
REMARK   10  A    between atoms: CA_19  and  CB_21 
REMARK   11  A    between atoms: CA_19  and  N_32 
REMARK   12  A    between atoms: CA_19  and  C_20 
REMARK       I    between atoms: C_20  and  N_41 
REMARK   13  A    between atoms: CB_21  and  CG_22 
REMARK   14  A    between atoms: CA_35  and  N_41 
REMARK   15  A    between atoms: CA_35  and  CB_37 
REMARK   16  A    between atoms: CA_35  and  C_36 
REMARK       I    between atoms: C_36  and  N_51 
REMARK   17  A    between atoms: CB_37  and  CG_38 
REMARK   18  A    between atoms: CG_38  and  CD_39 
REMARK   19  A    between atoms: CA_45  and  N_51 
REMARK   20  A    between atoms: CA_45  and  CB_47 
REMARK   21  A    between atoms: CA_45  and  C_46 
REMARK       I    between atoms: C_46  and  N_67 
REMARK   22  A    between atoms: CB_47  and  OG1_53 
REMARK   23  A    between atoms: CA_54  and  CB_56 
REMARK   24  A    between atoms: CA_54  and  N_67 
REMARK   25  A    between atoms: CA_54  and  C_55 
REMARK       I    between atoms: C_55  and  N_76 
REMARK   26  A    between atoms: CB_56  and  CG_57 
REMARK   27  A    between atoms: CA_70  and  N_76 
REMARK   28  A    between atoms: CA_70  and  CB_72 
REMARK   29  A    between atoms: CA_70  and  C_71 
ROOT
ATOM      1  CA  GLU B   4      11.593  93.155  64.376  1.00  0.00     0.177 C 
ENDROOT
BRANCH   1   2
ATOM      2  N   GLU B   4      12.275  94.393  64.001  1.00  0.00    -0.346 N 
ATOM      3  H   GLU B   4      12.863  94.831  64.651  1.00  0.23     0.163 HD
ATOM      4  C   TRP B   3      12.109  94.936  62.798  1.00  0.00     0.241 C 
ATOM      5  O   TRP B   3      11.385  94.439  61.937  1.00  0.00    -0.271 OA
BRANCH   4   6
ATOM      6  CA  TRP B   3      12.871  96.230  62.524  1.00  0.00     0.181 C 
BRANCH   6   7
ATOM      7  CB  TRP B   3      13.198  96.339  61.028  1.00  0.00     0.075 C 
BRANCH   7   8
ATOM      8  CG  TRP B   3      12.329  97.309  60.282  1.00  0.00    -0.028 A 
ATOM      9  CD2 TRP B   3      12.722  98.156  59.196  1.00  0.00    -0.002 A 
ATOM     10  CE2 TRP B   3      11.585  98.887  58.802  1.00  0.00     0.042 A 
ATOM     11  CE3 TRP B   3      13.926  98.371  58.517  1.00  0.00     0.014 A 
ATOM     12  NE1 TRP B   3      10.547  98.500  59.609  1.00  0.00    -0.365 N 
ATOM     13  CZ2 TRP B   3      11.616  99.815  57.763  1.00  0.00     0.030 A 
ATOM     14  HE1 TRP B   3       9.630  98.842  59.565  1.00  0.23     0.165 HD
ATOM     15  CD1 TRP B   3      11.002  97.550  60.494  1.00  0.00     0.096 A 
ATOM     16  CH2 TRP B   3      12.808 100.004  57.120  1.00  0.00     0.002 A 
ATOM     17  CZ3 TRP B   3      13.956  99.292  57.487  1.00  0.00     0.001 A 
ENDBRANCH   7   8
ENDBRANCH   6   7
BRANCH   6  18
ATOM     18  N   TRP B   3      14.085  96.307  63.333  1.00  0.00    -0.346 N 
ATOM     19  H   TRP B   3      14.174  97.026  63.995  1.00  0.23     0.163 HD
ATOM     20  C   GLY B   2      15.083  95.420  63.198  1.00  0.00     0.236 C 
ATOM     21  O   GLY B   2      15.040  94.506  62.380  1.00  0.00    -0.272 OA
BRANCH  20  22
ATOM     22  CA  GLY B   2      16.284  95.638  64.087  1.00  0.00     0.225 C 
BRANCH  22  23
ATOM     23  N   GLY B   2      16.421  97.047  64.444  1.00  0.00    -0.350 N 
ATOM     24  C   LYS B   1      17.314  97.455  65.350  1.00  0.00     0.254 C 
ATOM     25  O   LYS B   1      18.030  96.662  65.970  1.00  0.00    -0.271 OA
ATOM     26  H   GLY B   2      15.842  97.711  64.007  1.00  0.00     0.163 HD
BRANCH  24  27
ATOM     27  CA  LYS B   1      17.366  98.942  65.614  1.00  0.00     0.350 C 
BRANCH  27  28
ATOM     28  CB  LYS B   1      18.692  99.333  66.322  1.00  0.00     0.048 C 
BRANCH  28  29
ATOM     29  CG  LYS B   1      18.799 100.847  66.636  1.00  0.00     0.004 C 
BRANCH  29  30
ATOM     30  CD  LYS B   1      20.229 101.387  66.723  1.00  0.00     0.027 C 
BRANCH  30  31
ATOM     31  CE  LYS B   1      21.218 100.254  66.414  1.00  0.00     0.229 C 
BRANCH  31  32
ATOM     32  NZ  LYS B   1      21.888 100.526  65.130  1.00  0.00    -0.079 N 
ATOM     33  HZ1 LYS B   1      22.776 100.014  65.069  1.00  0.00     0.274 HD
ATOM     34  HZ2 LYS B   1      21.320 100.208  64.338  1.00  0.00     0.274 HD
ATOM     35  HZ3 LYS B   1      22.032 101.525  65.091  1.00  0.00     0.274 HD
ENDBRANCH  31  32
ENDBRANCH  30  31
ENDBRANCH  29  30
ENDBRANCH  28  29
ENDBRANCH  27  28
BRANCH  27  36
ATOM     36  N   LYS B   1      16.234  99.369  66.431  1.00  0.00     0.312 N 
ATOM     37  H   LYS B   1      15.444  98.657  66.346  1.00  0.00     0.359 HD
ENDBRANCH  27  36
ENDBRANCH  24  27
ENDBRANCH  22  23
ENDBRANCH  20  22
ENDBRANCH   6  18
ENDBRANCH   4   6
ENDBRANCH   1   2
BRANCH   1  38
ATOM     38  CB  GLU B   4      12.018  92.711  65.776  1.00  0.00     0.045 C 
BRANCH  38  39
ATOM     39  CG  GLU B   4      12.687  91.347  65.801  1.00  0.00     0.116 C 
BRANCH  39  40
ATOM     40  CD  GLU B   4      13.817  91.230  64.796  1.00  0.00     0.172 C 
ATOM     41  OE2 GLU B   4      14.687  92.126  64.775  1.00  0.00    -0.648 OA
ATOM     42  OE1 GLU B   4      13.832  90.243  64.032  1.00  0.00    -0.648 OA
ENDBRANCH  39  40
ENDBRANCH  38  39
ENDBRANCH   1  38
BRANCH   1  43
ATOM     43  C   GLU B   4      10.078  93.334  64.330  1.00  0.00     0.241 C 
ATOM     44  N   THR B   5       9.441  92.687  63.358  1.00  7.70    -0.344 N 
ATOM     45  H   THR B   5       9.960  92.141  62.731  1.00  0.23     0.163 HD
ATOM     46  O   GLU B   4       9.501  94.038  65.159  1.00  0.00    -0.271 OA
BRANCH  44  47
ATOM     47  CA  THR B   5       7.992  92.766  63.198  1.00  7.88     0.205 C 
BRANCH  47  48
ATOM     48  CB  THR B   5       7.635  93.083  61.745  1.00  4.05     0.146 C 
ATOM     49  CG2 THR B   5       6.240  93.646  61.583  1.00  3.72     0.042 C 
BRANCH  48  50
ATOM     50  OG1 THR B   5       8.543  94.024  61.200  1.00  7.31    -0.393 OA
ATOM     51  HG1 THR B   5       8.091  94.565  60.549  1.00  0.23     0.210 HD
ENDBRANCH  48  50
ENDBRANCH  47  48
BRANCH  47  52
ATOM     52  C   THR B   5       7.333  91.458  63.623  1.00  7.05     0.243 C 
ATOM     53  N   TRP B   6       7.968  90.342  63.283  1.00  0.00    -0.346 N 
ATOM     54  H   TRP B   6       8.812  90.403  62.787  1.00  0.23     0.163 HD
ATOM     55  O   THR B   5       6.270  91.461  64.243  1.00  6.06    -0.271 OA
BRANCH  53  56
ATOM     56  CA  TRP B   6       7.440  89.028  63.626  1.00  0.00     0.181 C 
BRANCH  56  57
ATOM     57  CB  TRP B   6       7.764  88.023  62.520  1.00  0.00     0.075 C 
BRANCH  57  58
ATOM     58  CG  TRP B   6       6.576  87.682  61.674  1.00  0.00    -0.028 A 
ATOM     59  CD2 TRP B   6       6.577  86.909  60.467  1.00  0.00    -0.002 A 
ATOM     60  CE2 TRP B   6       5.245  86.837  60.017  1.00  0.00     0.042 A 
ATOM     61  CE3 TRP B   6       7.575  86.274  59.724  1.00  0.00     0.014 A 
ATOM     62  CZ2 TRP B   6       4.887  86.153  58.859  1.00  0.00     0.030 A 
ATOM     63  NE1 TRP B   6       4.470  87.533  60.909  1.00  0.00    -0.365 N 
ATOM     64  CH2 TRP B   6       5.884  85.540  58.149  1.00  0.00     0.002 A 
ATOM     65  CZ3 TRP B   6       7.217  85.595  58.572  1.00  0.00     0.001 A 
ATOM     66  HE1 TRP B   6       3.499  87.651  60.850  1.00  0.23     0.165 HD
ATOM     67  CD1 TRP B   6       5.278  88.036  61.901  1.00  0.00     0.096 A 
ENDBRANCH  57  58
ENDBRANCH  56  57
BRANCH  56  68
ATOM     68  C   TRP B   6       8.004  88.544  64.958  1.00  0.00     0.241 C 
ATOM     69  N   VAL B   7       7.427  89.036  66.050  1.00  6.11    -0.344 N 
ATOM     70  H   VAL B   7       6.685  89.668  65.954  1.00  0.23     0.163 HD
ATOM     71  O   TRP B   6       8.942  87.748  64.994  1.00  0.00    -0.271 OA
BRANCH  69  72
ATOM     72  CA  VAL B   7       7.871  88.659  67.386  1.00  5.65     0.189 C 
BRANCH  72  73
ATOM     73  CB  VAL B   7       8.142  89.903  68.254  1.00  1.15     0.010 C 
ATOM     74  CG1 VAL B   7       9.617  90.276  68.207  1.00  4.96     0.012 C 
ATOM     75  CG2 VAL B   7       7.276  91.071  67.807  1.00  9.83     0.012 C 
ENDBRANCH  72  73
BRANCH  72  76
ATOM     76  C   VAL B   7       6.836  87.781  68.084  1.00  4.44     0.197 C 
ATOM     77  OXT VAL B   7       5.686  88.236  68.245  1.00  0.00    -0.646 OA
ATOM     78  O   VAL B   7       7.187  86.643  68.461  1.00  0.00    -0.646 OA
ENDBRANCH  72  76
ENDBRANCH  69  72
ENDBRANCH  56  68
ENDBRANCH  53  56
ENDBRANCH  47  52
ENDBRANCH  44  47
ENDBRANCH   1  43
TORSDOF 29
ENDMDL
MODEL 4
REMARK VINA RESULT:      -6.6      2.803      7.345
REMARK  29 active torsions:
REMARK  status: ('A' for Active; 'I' for Inactive)
REMARK    1  A    between atoms: N_1  and  CA_2 
REMARK    2  A    between atoms: CA_2  and  CB_5 
REMARK    3  A    between atoms: CA_2  and  C_3 
REMARK       I    between atoms: C_3  and  N_14 
REMARK    4  A    between atoms: CB_5  and  CG_6 
REMARK    5  A    between atoms: CG_6  and  CD_7 
REMARK    6  A    between atoms: CD_7  and  CE_8 
REMARK    7  A    between atoms: CE_8  and  NZ_9 
REMARK    8  A    between atoms: N_14  and  CA_15 
REMARK    9  A    between atoms: CA_15  and  C_16 
REMARK       I    between atoms: C_16  and  N_32 
REMARK   10  A    between atoms: CA_19  and  CB_21 
REMARK   11  A    between atoms: CA_19  and  N_32 
REMARK   12  A    between atoms: CA_19  and  C_20 
REMARK       I    between atoms: C_20  and  N_41 
REMARK   13  A    between atoms: CB_21  and  CG_22 
REMARK   14  A    between atoms: CA_35  and  N_41 
REMARK   15  A    between atoms: CA_35  and  CB_37 
REMARK   16  A    between atoms: CA_35  and  C_36 
REMARK       I    between atoms: C_36  and  N_51 
REMARK   17  A    between atoms: CB_37  and  CG_38 
REMARK   18  A    between atoms: CG_38  and  CD_39 
REMARK   19  A    between atoms: CA_45  and  N_51 
REMARK   20  A    between atoms: CA_45  and  CB_47 
REMARK   21  A    between atoms: CA_45  and  C_46 
REMARK       I    between atoms: C_46  and  N_67 
REMARK   22  A    between atoms: CB_47  and  OG1_53 
REMARK   23  A    between atoms: CA_54  and  CB_56 
REMARK   24  A    between atoms: CA_54  and  N_67 
REMARK   25  A    between atoms: CA_54  and  C_55 
REMARK       I    between atoms: C_55  and  N_76 
REMARK   26  A    between atoms: CB_56  and  CG_57 
REMARK   27  A    between atoms: CA_70  and  N_76 
REMARK   28  A    between atoms: CA_70  and  CB_72 
REMARK   29  A    between atoms: CA_70  and  C_71 
ROOT
ATOM      1  CA  GLU B   4       9.431  92.269  63.291  1.00  0.00     0.177 C 
ENDROOT
BRANCH   1   2
ATOM      2  N   GLU B   4      10.506  93.249  63.436  1.00  0.00    -0.346 N 
ATOM      3  H   GLU B   4      11.130  93.167  64.187  1.00  0.23     0.163 HD
ATOM      4  C   TRP B   3      10.651  94.249  62.572  1.00  0.00     0.241 C 
ATOM      5  O   TRP B   3       9.902  94.410  61.609  1.00  0.00    -0.271 OA
BRANCH   4   6
ATOM      6  CA  TRP B   3      11.807  95.210  62.829  1.00  0.00     0.181 C 
BRANCH   6   7
ATOM      7  CB  TRP B   3      12.492  95.574  61.503  1.00  0.00     0.075 C 
BRANCH   7   8
ATOM      8  CG  TRP B   3      11.982  96.840  60.879  1.00  0.00    -0.028 A 
ATOM      9  CD2 TRP B   3      12.583  97.573  59.805  1.00  0.00    -0.002 A 
ATOM     10  CE2 TRP B   3      11.759  98.684  59.543  1.00  0.00     0.042 A 
ATOM     11  CE3 TRP B   3      13.740  97.400  59.039  1.00  0.00     0.014 A 
ATOM     12  NE1 TRP B   3      10.703  98.628  60.415  1.00  0.00    -0.365 N 
ATOM     13  CZ2 TRP B   3      12.055  99.616  58.551  1.00  0.00     0.030 A 
ATOM     14  HE1 TRP B   3       9.968  99.274  60.465  1.00  0.23     0.165 HD
ATOM     15  CD1 TRP B   3      10.844  97.517  61.213  1.00  0.00     0.096 A 
ATOM     16  CH2 TRP B   3      13.194  99.420  57.819  1.00  0.00     0.002 A 
ATOM     17  CZ3 TRP B   3      14.033  98.325  58.054  1.00  0.00     0.001 A 
ENDBRANCH   7   8
ENDBRANCH   6   7
BRANCH   6  18
ATOM     18  N   TRP B   3      12.764  94.641  63.774  1.00  0.00    -0.346 N 
ATOM     19  H   TRP B   3      12.793  94.986  64.691  1.00  0.23     0.163 HD
ATOM     20  C   GLY B   2      13.605  93.656  63.423  1.00  0.00     0.236 C 
ATOM     21  O   GLY B   2      13.630  93.189  62.287  1.00  0.00    -0.272 OA
BRANCH  20  22
ATOM     22  CA  GLY B   2      14.552  93.181  64.498  1.00  0.00     0.225 C 
BRANCH  22  23
ATOM     23  N   GLY B   2      14.079  91.937  65.099  1.00  0.00    -0.350 N 
ATOM     24  C   LYS B   1      12.892  91.861  65.706  1.00  0.00     0.254 C 
ATOM     25  O   LYS B   1      12.158  92.847  65.838  1.00  0.00    -0.271 OA
ATOM     26  H   GLY B   2      14.649  91.137  65.055  1.00  0.00     0.163 HD
BRANCH  24  27
ATOM     27  CA  LYS B   1      12.514  90.511  66.269  1.00  0.00     0.350 C 
BRANCH  27  28
ATOM     28  CB  LYS B   1      11.374  90.645  67.316  1.00  0.00     0.048 C 
BRANCH  28  29
ATOM     29  CG  LYS B   1      10.544  89.349  67.491  1.00  0.00     0.004 C 
BRANCH  29  30
ATOM     30  CD  LYS B   1       9.085  89.569  67.900  1.00  0.00     0.027 C 
BRANCH  30  31
ATOM     31  CE  LYS B   1       8.392  88.209  68.053  1.00  0.00     0.229 C 
BRANCH  31  32
ATOM     32  NZ  LYS B   1       7.232  88.145  67.147  1.00  0.00    -0.079 N 
ATOM     33  HZ1 LYS B   1       7.056  87.178  66.851  1.00  0.00     0.274 HD
ATOM     34  HZ2 LYS B   1       6.375  88.461  67.613  1.00  0.00     0.274 HD
ATOM     35  HZ3 LYS B   1       7.453  88.739  66.360  1.00  0.00     0.274 HD
ENDBRANCH  31  32
ENDBRANCH  30  31
ENDBRANCH  29  30
ENDBRANCH  28  29
ENDBRANCH  27  28
BRANCH  27  36
ATOM     36  N   LYS B   1      13.667  89.860  66.885  1.00  0.00     0.312 N 
ATOM     37  H   LYS B   1      14.022  90.456  67.697  1.00  0.00     0.359 HD
ENDBRANCH  27  36
ENDBRANCH  24  27
ENDBRANCH  22  23
ENDBRANCH  20  22
ENDBRANCH   6  18
ENDBRANCH   4   6
ENDBRANCH   1   2
BRANCH   1  38
ATOM     38  CB  GLU B   4       9.258  91.467  64.581  1.00  0.00     0.045 C 
BRANCH  38  39
ATOM     39  CG  GLU B   4       8.012  90.597  64.590  1.00  0.00     0.116 C 
BRANCH  39  40
ATOM     40  CD  GLU B   4       8.160  89.352  63.737  1.00  0.00     0.172 C 
ATOM     41  OE2 GLU B   4       8.503  88.289  64.295  1.00  0.00    -0.648 OA
ATOM     42  OE1 GLU B   4       7.932  89.440  62.513  1.00  0.00    -0.648 OA
ENDBRANCH  39  40
ENDBRANCH  38  39
ENDBRANCH   1  38
BRANCH   1  43
ATOM     43  C   GLU B   4       8.116  92.954  62.930  1.00  0.00     0.241 C 
ATOM     44  N   THR B   5       7.641  92.706  61.713  1.00  7.70    -0.344 N 
ATOM     45  H   THR B   5       8.144  92.111  61.118  1.00  0.23     0.163 HD
ATOM     46  O   GLU B   4       7.545  93.686  63.739  1.00  0.00    -0.271 OA
BRANCH  44  47
ATOM     47  CA  THR B   5       6.391  93.292  61.238  1.00  7.88     0.205 C 
BRANCH  47  48
ATOM     48  CB  THR B   5       6.531  93.731  59.780  1.00  4.05     0.146 C 
ATOM     49  CG2 THR B   5       5.539  94.802  59.380  1.00  3.72     0.042 C 
BRANCH  48  50
ATOM     50  OG1 THR B   5       7.831  94.237  59.532  1.00  7.31    -0.393 OA
ATOM     51  HG1 THR B   5       8.218  94.542  60.355  1.00  0.23     0.210 HD
ENDBRANCH  48  50
ENDBRANCH  47  48
BRANCH  47  52
ATOM     52  C   THR B   5       5.245  92.295  61.374  1.00  7.05     0.243 C 
ATOM     53  N   TRP B   6       5.578  91.009  61.359  1.00  0.00    -0.346 N 
ATOM     54  H   TRP B   6       6.522  90.760  61.266  1.00  0.23     0.163 HD
ATOM     55  O   THR B   5       4.082  92.683  61.486  1.00  6.06    -0.271 OA
BRANCH  53  56
ATOM     56  CA  TRP B   6       4.575  89.959  61.476  1.00  0.00     0.181 C 
BRANCH  56  57
ATOM     57  CB  TRP B   6       5.025  88.712  60.713  1.00  0.00     0.075 C 
BRANCH  57  58
ATOM     58  CG  TRP B   6       3.879  87.869  60.244  1.00  0.00    -0.028 A 
ATOM     59  CD2 TRP B   6       2.866  88.248  59.304  1.00  0.00    -0.002 A 
ATOM     60  CE2 TRP B   6       2.001  87.147  59.157  1.00  0.00     0.042 A 
ATOM     61  CE3 TRP B   6       2.607  89.411  58.574  1.00  0.00     0.014 A 
ATOM     62  CZ2 TRP B   6       0.897  87.176  58.309  1.00  0.00     0.030 A 
ATOM     63  NE1 TRP B   6       2.467  86.146  59.970  1.00  0.00    -0.365 N 
ATOM     64  CH2 TRP B   6       0.666  88.327  57.606  1.00  0.00     0.002 A 
ATOM     65  CZ3 TRP B   6       1.509  89.437  57.732  1.00  0.00     0.001 A 
ATOM     66  HE1 TRP B   6       2.062  85.259  60.072  1.00  0.23     0.165 HD
ATOM     67  CD1 TRP B   6       3.594  86.588  60.619  1.00  0.00     0.096 A 
ENDBRANCH  57  58
ENDBRANCH  56  57
BRANCH  56  68
ATOM     68  C   TRP B   6       4.315  89.614  62.939  1.00  0.00     0.241 C 
ATOM     69  N   VAL B   7       3.659  90.529  63.647  1.00  6.11    -0.344 N 
ATOM     70  H   VAL B   7       3.378  91.359  63.210  1.00  0.23     0.163 HD
ATOM     71  O   TRP B   6       4.703  88.547  63.415  1.00  0.00    -0.271 OA
BRANCH  69  72
ATOM     72  CA  VAL B   7       3.347  90.327  65.056  1.00  5.65     0.189 C 
BRANCH  72  73
ATOM     73  CB  VAL B   7       3.905  91.476  65.920  1.00  1.15     0.010 C 
ATOM     74  CG1 VAL B   7       5.006  90.966  66.839  1.00  4.96     0.012 C 
ATOM     75  CG2 VAL B   7       4.416  92.609  65.043  1.00  9.83     0.012 C 
ENDBRANCH  72  73
BRANCH  72  76
ATOM     76  C   VAL B   7       1.841  90.223  65.279  1.00  4.44     0.197 C 
ATOM     77  OXT VAL B   7       1.147  89.690  64.389  1.00  0.00    -0.646 OA
ATOM     78  O   VAL B   7       1.370  90.674  66.343  1.00  0.00    -0.646 OA
ENDBRANCH  72  76
ENDBRANCH  69  72
ENDBRANCH  56  68
ENDBRANCH  53  56
ENDBRANCH  47  52
ENDBRANCH  44  47
ENDBRANCH   1  43
TORSDOF 29
ENDMDL
MODEL 5
REMARK VINA RESULT:      -6.3      2.785      8.629
REMARK  29 active torsions:
REMARK  status: ('A' for Active; 'I' for Inactive)
REMARK    1  A    between atoms: N_1  and  CA_2 
REMARK    2  A    between atoms: CA_2  and  CB_5 
REMARK    3  A    between atoms: CA_2  and  C_3 
REMARK       I    between atoms: C_3  and  N_14 
REMARK    4  A    between atoms: CB_5  and  CG_6 
REMARK    5  A    between atoms: CG_6  and  CD_7 
REMARK    6  A    between atoms: CD_7  and  CE_8 
REMARK    7  A    between atoms: CE_8  and  NZ_9 
REMARK    8  A    between atoms: N_14  and  CA_15 
REMARK    9  A    between atoms: CA_15  and  C_16 
REMARK       I    between atoms: C_16  and  N_32 
REMARK   10  A    between atoms: CA_19  and  CB_21 
REMARK   11  A    between atoms: CA_19  and  N_32 
REMARK   12  A    between atoms: CA_19  and  C_20 
REMARK       I    between atoms: C_20  and  N_41 
REMARK   13  A    between atoms: CB_21  and  CG_22 
REMARK   14  A    between atoms: CA_35  and  N_41 
REMARK   15  A    between atoms: CA_35  and  CB_37 
REMARK   16  A    between atoms: CA_35  and  C_36 
REMARK       I    between atoms: C_36  and  N_51 
REMARK   17  A    between atoms: CB_37  and  CG_38 
REMARK   18  A    between atoms: CG_38  and  CD_39 
REMARK   19  A    between atoms: CA_45  and  N_51 
REMARK   20  A    between atoms: CA_45  and  CB_47 
REMARK   21  A    between atoms: CA_45  and  C_46 
REMARK       I    between atoms: C_46  and  N_67 
REMARK   22  A    between atoms: CB_47  and  OG1_53 
REMARK   23  A    between atoms: CA_54  and  CB_56 
REMARK   24  A    between atoms: CA_54  and  N_67 
REMARK   25  A    between atoms: CA_54  and  C_55 
REMARK       I    between atoms: C_55  and  N_76 
REMARK   26  A    between atoms: CB_56  and  CG_57 
REMARK   27  A    between atoms: CA_70  and  N_76 
REMARK   28  A    between atoms: CA_70  and  CB_72 
REMARK   29  A    between atoms: CA_70  and  C_71 
ROOT
ATOM      1  CA  GLU B   4       9.750  92.357  63.312  1.00  0.00     0.177 C 
ENDROOT
BRANCH   1   2
ATOM      2  N   GLU B   4      10.862  93.302  63.388  1.00  0.00    -0.346 N 
ATOM      3  H   GLU B   4      11.566  93.162  64.055  1.00  0.23     0.163 HD
ATOM      4  C   TRP B   3      10.936  94.350  62.571  1.00  0.00     0.241 C 
ATOM      5  O   TRP B   3      10.088  94.585  61.713  1.00  0.00    -0.271 OA
BRANCH   4   6
ATOM      6  CA  TRP B   3      12.143  95.267  62.747  1.00  0.00     0.181 C 
BRANCH   6   7
ATOM      7  CB  TRP B   3      12.700  95.670  61.374  1.00  0.00     0.075 C 
BRANCH   7   8
ATOM      8  CG  TRP B   3      12.094  96.923  60.812  1.00  0.00    -0.028 A 
ATOM      9  CD2 TRP B   3      12.597  97.710  59.726  1.00  0.00    -0.002 A 
ATOM     10  CE2 TRP B   3      11.706  98.784  59.539  1.00  0.00     0.042 A 
ATOM     11  CE3 TRP B   3      13.716  97.613  58.892  1.00  0.00     0.014 A 
ATOM     12  NE1 TRP B   3      10.705  98.655  60.466  1.00  0.00    -0.365 N 
ATOM     13  CZ2 TRP B   3      11.899  99.752  58.556  1.00  0.00     0.030 A 
ATOM     14  HE1 TRP B   3       9.943  99.262  60.574  1.00  0.23     0.165 HD
ATOM     15  CD1 TRP B   3      10.945  97.534  61.226  1.00  0.00     0.096 A 
ATOM     16  CH2 TRP B   3      13.003  99.631  57.757  1.00  0.00     0.002 A 
ATOM     17  CZ3 TRP B   3      13.906  98.574  57.918  1.00  0.00     0.001 A 
ENDBRANCH   7   8
ENDBRANCH   6   7
BRANCH   6  18
ATOM     18  N   TRP B   3      13.172  94.631  63.565  1.00  0.00    -0.346 N 
ATOM     19  H   TRP B   3      13.342  94.972  64.469  1.00  0.23     0.163 HD
ATOM     20  C   GLY B   2      13.893  93.594  63.114  1.00  0.00     0.236 C 
ATOM     21  O   GLY B   2      13.740  93.129  61.988  1.00  0.00    -0.272 OA
BRANCH  20  22
ATOM     22  CA  GLY B   2      14.936  93.053  64.063  1.00  0.00     0.225 C 
BRANCH  22  23
ATOM     23  N   GLY B   2      14.324  92.592  65.306  1.00  0.00    -0.350 N 
ATOM     24  C   LYS B   1      13.845  91.351  65.431  1.00  0.00     0.254 C 
ATOM     25  O   LYS B   1      13.847  90.549  64.492  1.00  0.00    -0.271 OA
ATOM     26  H   GLY B   2      14.262  93.211  66.067  1.00  0.00     0.163 HD
BRANCH  24  27
ATOM     27  CA  LYS B   1      13.254  90.996  66.775  1.00  0.00     0.350 C 
BRANCH  27  28
ATOM     28  CB  LYS B   1      11.704  90.923  66.698  1.00  0.00     0.048 C 
BRANCH  28  29
ATOM     29  CG  LYS B   1      11.110  89.690  67.424  1.00  0.00     0.004 C 
BRANCH  29  30
ATOM     30  CD  LYS B   1       9.831  89.966  68.219  1.00  0.00     0.027 C 
BRANCH  30  31
ATOM     31  CE  LYS B   1       8.741  88.977  67.785  1.00  0.00     0.229 C 
BRANCH  31  32
ATOM     32  NZ  LYS B   1       9.366  87.817  67.127  1.00  0.00    -0.079 N 
ATOM     33  HZ1 LYS B   1       9.604  88.038  66.152  1.00  0.00     0.274 HD
ATOM     34  HZ2 LYS B   1      10.247  87.558  67.583  1.00  0.00     0.274 HD
ATOM     35  HZ3 LYS B   1       8.697  87.062  67.184  1.00  0.00     0.274 HD
ENDBRANCH  31  32
ENDBRANCH  30  31
ENDBRANCH  29  30
ENDBRANCH  28  29
ENDBRANCH  27  28
BRANCH  27  36
ATOM     36  N   LYS B   1      13.645  91.968  67.792  1.00  0.00     0.312 N 
ATOM     37  H   LYS B   1      13.079  92.864  67.666  1.00  0.00     0.359 HD
ENDBRANCH  27  36
ENDBRANCH  24  27
ENDBRANCH  22  23
ENDBRANCH  20  22
ENDBRANCH   6  18
ENDBRANCH   4   6
ENDBRANCH   1   2
BRANCH   1  38
ATOM     38  CB  GLU B   4      10.049  91.109  64.145  1.00  0.00     0.045 C 
BRANCH  38  39
ATOM     39  CG  GLU B   4       8.800  90.414  64.661  1.00  0.00     0.116 C 
BRANCH  39  40
ATOM     40  CD  GLU B   4       8.295  89.339  63.718  1.00  0.00     0.172 C 
ATOM     41  OE2 GLU B   4       7.703  89.693  62.677  1.00  0.00    -0.648 OA
ATOM     42  OE1 GLU B   4       8.492  88.144  64.021  1.00  0.00    -0.648 OA
ENDBRANCH  39  40
ENDBRANCH  38  39
ENDBRANCH   1  38
BRANCH   1  43
ATOM     43  C   GLU B   4       8.455  93.002  63.797  1.00  0.00     0.241 C 
ATOM     44  N   THR B   5       7.397  92.858  63.005  1.00  7.70    -0.344 N 
ATOM     45  H   THR B   5       7.494  92.358  62.167  1.00  0.23     0.163 HD
ATOM     46  O   GLU B   4       8.417  93.611  64.867  1.00  0.00    -0.271 OA
BRANCH  44  47
ATOM     47  CA  THR B   5       6.094  93.420  63.348  1.00  7.88     0.205 C 
BRANCH  47  48
ATOM     48  CB  THR B   5       5.373  93.897  62.086  1.00  4.05     0.146 C 
ATOM     49  CG2 THR B   5       6.142  93.611  60.815  1.00  3.72     0.042 C 
BRANCH  48  50
ATOM     50  OG1 THR B   5       4.105  93.277  61.969  1.00  7.31    -0.393 OA
ATOM     51  HG1 THR B   5       4.222  92.343  61.781  1.00  0.23     0.210 HD
ENDBRANCH  48  50
ENDBRANCH  47  48
BRANCH  47  52
ATOM     52  C   THR B   5       5.238  92.389  64.077  1.00  7.05     0.243 C 
ATOM     53  N   TRP B   6       5.180  91.180  63.530  1.00  0.00    -0.346 N 
ATOM     54  H   TRP B   6       5.676  91.005  62.702  1.00  0.23     0.163 HD
ATOM     55  O   THR B   5       4.642  92.684  65.113  1.00  6.06    -0.271 OA
BRANCH  53  56
ATOM     56  CA  TRP B   6       4.394  90.108  64.127  1.00  0.00     0.181 C 
BRANCH  56  57
ATOM     57  CB  TRP B   6       3.097  90.668  64.713  1.00  0.00     0.075 C 
BRANCH  57  58
ATOM     58  CG  TRP B   6       2.958  90.408  66.181  1.00  0.00    -0.028 A 
ATOM     59  CD2 TRP B   6       2.138  91.132  67.106  1.00  0.00    -0.002 A 
ATOM     60  CE2 TRP B   6       2.314  90.539  68.371  1.00  0.00     0.042 A 
ATOM     61  CE3 TRP B   6       1.275  92.224  66.987  1.00  0.00     0.014 A 
ATOM     62  CZ2 TRP B   6       1.655  91.003  69.507  1.00  0.00     0.030 A 
ATOM     63  NE1 TRP B   6       3.199  89.503  68.222  1.00  0.00    -0.365 N 
ATOM     64  CH2 TRP B   6       0.816  92.073  69.363  1.00  0.00     0.002 A 
ATOM     65  CZ3 TRP B   6       0.622  92.683  68.117  1.00  0.00     0.001 A 
ATOM     66  HE1 TRP B   6       3.508  88.910  68.938  1.00  0.23     0.165 HD
ATOM     67  CD1 TRP B   6       3.581  89.431  66.904  1.00  0.00     0.096 A 
ENDBRANCH  57  58
ENDBRANCH  56  57
BRANCH  56  68
ATOM     68  C   TRP B   6       4.083  89.023  63.101  1.00  0.00     0.241 C 
ATOM     69  N   VAL B   7       4.659  89.161  61.911  1.00  6.11    -0.344 N 
ATOM     70  H   VAL B   7       5.243  89.931  61.751  1.00  0.23     0.163 HD
ATOM     71  O   TRP B   6       3.335  88.086  63.381  1.00  0.00    -0.271 OA
BRANCH  69  72
ATOM     72  CA  VAL B   7       4.444  88.198  60.840  1.00  5.65     0.189 C 
BRANCH  72  73
ATOM     73  CB  VAL B   7       3.900  88.886  59.572  1.00  1.15     0.010 C 
ATOM     74  CG1 VAL B   7       2.403  88.643  59.433  1.00  4.96     0.012 C 
ATOM     75  CG2 VAL B   7       4.204  90.376  59.597  1.00  9.83     0.012 C 
ENDBRANCH  72  73
BRANCH  72  76
ATOM     76  C   VAL B   7       5.735  87.462  60.492  1.00  4.44     0.197 C 
ATOM     77  OXT VAL B   7       6.424  87.003  61.426  1.00  0.00    -0.646 OA
ATOM     78  O   VAL B   7       6.043  87.351  59.287  1.00  0.00    -0.646 OA
ENDBRANCH  72  76
ENDBRANCH  69  72
ENDBRANCH  56  68
ENDBRANCH  53  56
ENDBRANCH  47  52
ENDBRANCH  44  47
ENDBRANCH   1  43
TORSDOF 29
ENDMDL
