REMARK  29 active torsions:
REMARK  status: ('A' for Active; 'I' for Inactive)
REMARK    1  A    between atoms: N_1  and  CA_2 
REMARK    2  A    between atoms: CA_2  and  CB_5 
REMARK    3  A    between atoms: CA_2  and  C_3 
REMARK       I    between atoms: C_3  and  N_14 
REMARK    4  A    between atoms: CB_5  and  CG_6 
REMARK    5  A    between atoms: CG_6  and  CD_7 
REMARK    6  A    between atoms: CD_7  and  CE_8 
REMARK    7  A    between atoms: CE_8  and  NZ_9 
REMARK    8  A    between atoms: N_14  and  CA_15 
REMARK    9  A    between atoms: CA_15  and  C_16 
REMARK       I    between atoms: C_16  and  N_33 
REMARK   10  A    between atoms: CA_20  and  CB_22 
REMARK   11  A    between atoms: CA_20  and  C_21 
REMARK   12  A    between atoms: CA_20  and  N_33 
REMARK       I    between atoms: C_21  and  N_42 
REMARK   13  A    between atoms: CB_22  and  CG_23 
REMARK   14  A    between atoms: CA_36  and  N_42 
REMARK   15  A    between atoms: CA_36  and  CB_38 
REMARK   16  A    between atoms: CA_36  and  C_37 
REMARK       I    between atoms: C_37  and  N_52 
REMARK   17  A    between atoms: CB_38  and  CG_39 
REMARK   18  A    between atoms: CG_39  and  CD_40 
REMARK   19  A    between atoms: CA_46  and  N_52 
REMARK   20  A    between atoms: CA_46  and  CB_48 
REMARK   21  A    between atoms: CA_46  and  C_47 
REMARK       I    between atoms: C_47  and  N_68 
REMARK   22  A    between atoms: CB_48  and  OG1_54 
REMARK   23  A    between atoms: CA_55  and  CB_57 
REMARK   24  A    between atoms: CA_55  and  N_68 
REMARK   25  A    between atoms: CA_55  and  C_56 
REMARK       I    between atoms: C_56  and  N_77 
REMARK   26  A    between atoms: CB_57  and  CG_58 
REMARK   27  A    between atoms: CA_71  and  N_77 
REMARK   28  A    between atoms: CA_71  and  CB_73 
REMARK   29  A    between atoms: CA_71  and  C_72 
ROOT
ATOM      1  CA  GLU B   4       2.935  -2.082  -1.427  1.00  0.00     0.177 C 
ENDROOT
BRANCH   1   2
ATOM      2  N   GLU B   4       2.719  -3.266  -0.598  1.00  0.00    -0.346 N 
ATOM      3  C   TRP B   3       3.738  -4.008  -0.173  1.00  0.00     0.241 C 
ATOM      4  O   TRP B   3       4.909  -3.750  -0.448  1.00  0.00    -0.271 OA
ATOM      5  H   GLU B   4       1.805  -3.516  -0.349  1.00  0.23     0.163 HD
BRANCH   3   6
ATOM      6  CA  TRP B   3       3.388  -5.218   0.688  1.00  0.00     0.181 C 
BRANCH   6   7
ATOM      7  CB  TRP B   3       2.953  -6.389  -0.205  1.00  0.00     0.075 C 
BRANCH   7   8
ATOM      8  CG  TRP B   3       1.526  -6.311  -0.663  1.00  0.00    -0.028 A 
ATOM      9  CD1 TRP B   3       0.426  -6.770   0.003  1.00  0.00     0.096 A 
ATOM     10  NE1 TRP B   3      -0.709  -6.527  -0.735  1.00  0.00    -0.365 N 
ATOM     11  HE1 TRP B   3      -1.622  -6.762  -0.467  1.00  0.23     0.165 HD
ATOM     12  CE2 TRP B   3      -0.354  -5.903  -1.902  1.00  0.00     0.042 A 
ATOM     13  CZ2 TRP B   3      -1.145  -5.461  -2.960  1.00  0.00     0.030 A 
ATOM     14  CD2 TRP B   3       1.046  -5.752  -1.892  1.00  0.00    -0.002 A 
ATOM     15  CH2 TRP B   3      -0.513  -4.862  -4.015  1.00  0.00     0.002 A 
ATOM     16  CZ3 TRP B   3       0.877  -4.699  -4.035  1.00  0.00     0.001 A 
ATOM     17  CE3 TRP B   3       1.663  -5.137  -2.986  1.00  0.00     0.014 A 
ENDBRANCH   7   8
ENDBRANCH   6   7
BRANCH   6  18
ATOM     18  N   TRP B   3       2.351  -4.888   1.662  1.00  0.00    -0.346 N 
ATOM     19  C   ALA B   2       2.015  -5.730   2.650  1.00  0.00     0.240 C 
ATOM     20  O   ALA B   2       2.568  -6.816   2.803  1.00  0.00    -0.271 OA
ATOM     21  H   TRP B   3       1.886  -4.027   1.592  1.00  0.23     0.163 HD
BRANCH  19  22
ATOM     22  CA  ALA B   2       0.941  -5.245   3.595  1.00  0.00     0.172 C 
ATOM     23  CB  ALA B   2       1.491  -4.876   4.983  1.00  0.00     0.042 C 
BRANCH  22  24
ATOM     24  N   ALA B   2      -0.088  -6.264   3.783  1.00  0.00    -0.346 N 
ATOM     25  C   LYS B   1       0.092  -7.294   4.615  1.00  0.00     0.254 C 
ATOM     26  O   LYS B   1       1.152  -7.467   5.226  1.00  0.00    -0.271 OA
ATOM     27  H   ALA B   2      -0.932  -6.191   3.285  1.00  0.00     0.163 HD
BRANCH  25  28
ATOM     28  CA  LYS B   1      -1.058  -8.267   4.732  1.00  0.00     0.350 C 
BRANCH  28  29
ATOM     29  CB  LYS B   1      -1.448  -8.835   3.340  1.00  0.00     0.048 C 
BRANCH  29  30
ATOM     30  CG  LYS B   1      -2.450 -10.014   3.415  1.00  0.00     0.004 C 
BRANCH  30  31
ATOM     31  CD  LYS B   1      -2.847 -10.609   2.061  1.00  0.00     0.027 C 
BRANCH  31  32
ATOM     32  CE  LYS B   1      -3.849 -11.750   2.284  1.00  0.00     0.229 C 
BRANCH  32  33
ATOM     33  NZ  LYS B   1      -4.242 -12.318   0.983  1.00  0.00    -0.079 N 
ATOM     34  HZ1 LYS B   1      -3.443 -12.334   0.338  1.00  0.00     0.274 HD
ATOM     35  HZ2 LYS B   1      -4.551 -13.291   1.078  1.00  0.00     0.274 HD
ATOM     36  HZ3 LYS B   1      -4.990 -11.736   0.633  1.00  0.00     0.274 HD
ENDBRANCH  32  33
ENDBRANCH  31  32
ENDBRANCH  30  31
ENDBRANCH  29  30
ENDBRANCH  28  29
BRANCH  28  37
ATOM     37  N   LYS B   1      -2.222  -7.630   5.341  1.00  0.00     0.312 N 
ATOM     38  H   LYS B   1      -1.997  -6.610   5.561  1.00  0.00     0.359 HD
ENDBRANCH  28  37
ENDBRANCH  25  28
ENDBRANCH  22  24
ENDBRANCH  19  22
ENDBRANCH   6  18
ENDBRANCH   3   6
ENDBRANCH   1   2
BRANCH   1  39
ATOM     39  CB  GLU B   4       1.619  -1.618  -2.053  1.00  0.00     0.045 C 
BRANCH  39  40
ATOM     40  CG  GLU B   4       0.498  -1.442  -1.042  1.00  0.00     0.116 C 
BRANCH  40  41
ATOM     41  CD  GLU B   4      -0.456  -2.621  -1.013  1.00  0.00     0.172 C 
ATOM     42  OE2 GLU B   4      -0.521  -3.306   0.029  1.00  0.00    -0.648 OA
ATOM     43  OE1 GLU B   4      -1.137  -2.858  -2.032  1.00  0.00    -0.648 OA
ENDBRANCH  40  41
ENDBRANCH  39  40
ENDBRANCH   1  39
BRANCH   1  44
ATOM     44  C   GLU B   4       3.543  -0.948  -0.607  1.00  0.00     0.241 C 
ATOM     45  O   GLU B   4       3.056  -0.622   0.476  1.00  0.00    -0.271 OA
ATOM     46  N   THR B   5       4.607  -0.349  -1.134  1.00  7.70    -0.344 N 
ATOM     47  H   THR B   5       4.944  -0.656  -2.002  1.00  0.23     0.163 HD
BRANCH  46  48
ATOM     48  CA  THR B   5       5.286   0.753  -0.459  1.00  7.88     0.205 C 
BRANCH  48  49
ATOM     49  CB  THR B   5       6.709   0.344  -0.075  1.00  4.05     0.146 C 
ATOM     50  CG2 THR B   5       7.356   1.289   0.914  1.00  3.72     0.042 C 
BRANCH  49  51
ATOM     51  OG1 THR B   5       6.720  -0.951   0.499  1.00  7.31    -0.393 OA
ATOM     52  HG1 THR B   5       6.777  -1.609  -0.197  1.00  0.23     0.210 HD
ENDBRANCH  49  51
ENDBRANCH  48  49
BRANCH  48  53
ATOM     53  C   THR B   5       5.323   1.989  -1.352  1.00  7.05     0.243 C 
ATOM     54  O   THR B   5       5.874   1.955  -2.452  1.00  6.06    -0.271 OA
ATOM     55  N   TRP B   6       4.731   3.078  -0.874  1.00  0.00    -0.346 N 
ATOM     56  H   TRP B   6       4.307   3.044   0.009  1.00  0.23     0.163 HD
BRANCH  55  57
ATOM     57  CA  TRP B   6       4.694   4.322  -1.632  1.00  0.00     0.181 C 
BRANCH  57  58
ATOM     58  CB  TRP B   6       3.466   5.144  -1.238  1.00  0.00     0.075 C 
BRANCH  58  59
ATOM     59  CG  TRP B   6       2.176   4.494  -1.635  1.00  0.00    -0.028 A 
ATOM     60  CD2 TRP B   6       1.490   4.644  -2.884  1.00  0.00    -0.002 A 
ATOM     61  CE2 TRP B   6       0.330   3.849  -2.820  1.00  0.00     0.042 A 
ATOM     62  CE3 TRP B   6       1.744   5.374  -4.048  1.00  0.00     0.014 A 
ATOM     63  CZ2 TRP B   6      -0.572   3.764  -3.877  1.00  0.00     0.030 A 
ATOM     64  NE1 TRP B   6       0.312   3.244  -1.590  1.00  0.00    -0.365 N 
ATOM     65  CH2 TRP B   6      -0.300   4.489  -5.005  1.00  0.00     0.002 A 
ATOM     66  CZ3 TRP B   6       0.846   5.288  -5.097  1.00  0.00     0.001 A 
ATOM     67  HE1 TRP B   6      -0.381   2.631  -1.266  1.00  0.23     0.165 HD
ATOM     68  CD1 TRP B   6       1.424   3.637  -0.885  1.00  0.00     0.096 A 
ENDBRANCH  58  59
ENDBRANCH  57  58
BRANCH  57  69
ATOM     69  C   TRP B   6       5.965   5.135  -1.408  1.00  0.00     0.241 C 
ATOM     70  N   VAL B   7       6.752   5.293  -2.468  1.00  6.11    -0.344 N 
ATOM     71  H   VAL B   7       6.488   4.893  -3.322  1.00  0.23     0.163 HD
ATOM     72  O   TRP B   6       6.227   5.604  -0.300  1.00  0.00    -0.271 OA
BRANCH  70  73
ATOM     73  CA  VAL B   7       7.998   6.045  -2.391  1.00  5.65     0.189 C 
BRANCH  73  74
ATOM     74  CB  VAL B   7       9.053   5.476  -3.360  1.00  1.15     0.010 C 
ATOM     75  CG1 VAL B   7       9.474   4.078  -2.930  1.00  4.96     0.012 C 
ATOM     76  CG2 VAL B   7       8.523   5.465  -4.786  1.00  9.83     0.012 C 
ENDBRANCH  73  74
BRANCH  73  77
ATOM     77  C   VAL B   7       7.772   7.520  -2.710  1.00  4.44     0.197 C 
ATOM     78  O   VAL B   7       8.412   8.369  -2.055  1.00  0.00    -0.646 OA
ATOM     79  OXT VAL B   7       6.958   7.813  -3.609  1.00  0.00    -0.646 OA
ENDBRANCH  73  77
ENDBRANCH  70  73
ENDBRANCH  57  69
ENDBRANCH  55  57
ENDBRANCH  48  53
ENDBRANCH  46  48
ENDBRANCH   1  44
TORSDOF 29
