MODEL 1
REMARK VINA RESULT:      -7.8      0.000      0.000
REMARK  31 active torsions:
REMARK  status: ('A' for Active; 'I' for Inactive)
REMARK    1  A    between atoms: N_1  and  CA_2 
REMARK    2  A    between atoms: CA_2  and  CB_5 
REMARK    3  A    between atoms: CA_2  and  C_3 
REMARK       I    between atoms: C_3  and  N_14 
REMARK    4  A    between atoms: CB_5  and  CG_6 
REMARK    5  A    between atoms: CG_6  and  CD_7 
REMARK    6  A    between atoms: CD_7  and  CE_8 
REMARK    7  A    between atoms: CE_8  and  NZ_9 
REMARK    8  A    between atoms: N_14  and  CA_15 
REMARK    9  A    between atoms: CA_15  and  CB_18 
REMARK   10  A    between atoms: CA_15  and  C_16 
REMARK       I    between atoms: C_16  and  N_36 
REMARK   11  A    between atoms: CB_18  and  CG1_19 
REMARK   12  A    between atoms: CA_23  and  CB_25 
REMARK   13  A    between atoms: CA_23  and  C_24 
REMARK   14  A    between atoms: CA_23  and  N_36 
REMARK       I    between atoms: C_24  and  N_45 
REMARK   15  A    between atoms: CB_25  and  CG_26 
REMARK   16  A    between atoms: CA_39  and  N_45 
REMARK   17  A    between atoms: CA_39  and  CB_41 
REMARK   18  A    between atoms: CA_39  and  C_40 
REMARK       I    between atoms: C_40  and  N_55 
REMARK   19  A    between atoms: CB_41  and  CG_42 
REMARK   20  A    between atoms: CG_42  and  CD_43 
REMARK   21  A    between atoms: CA_49  and  N_55 
REMARK   22  A    between atoms: CA_49  and  CB_51 
REMARK   23  A    between atoms: CA_49  and  C_50 
REMARK       I    between atoms: C_50  and  N_71 
REMARK   24  A    between atoms: CB_51  and  OG1_57 
REMARK   25  A    between atoms: CA_58  and  CB_60 
REMARK   26  A    between atoms: CA_58  and  N_71 
REMARK   27  A    between atoms: CA_58  and  C_59 
REMARK       I    between atoms: C_59  and  N_80 
REMARK   28  A    between atoms: CB_60  and  CG_61 
REMARK   29  A    between atoms: CA_74  and  N_80 
REMARK   30  A    between atoms: CA_74  and  CB_76 
REMARK   31  A    between atoms: CA_74  and  C_75 
ROOT
ATOM      1  CA  GLU B   4       8.717  88.756  63.651  1.00  0.00     0.177 C 
ENDROOT
BRANCH   1   2
ATOM      2  N   GLU B   4       8.922  89.990  64.407  1.00  0.00    -0.346 N 
ATOM      3  C   TRP B   3      10.138  90.497  64.586  1.00  0.00     0.241 C 
ATOM      4  O   TRP B   3      11.153  89.968  64.135  1.00  0.00    -0.271 OA
ATOM      5  H   GLU B   4       8.146  90.453  64.788  1.00  0.23     0.163 HD
BRANCH   3   6
ATOM      6  CA  TRP B   3      10.226  91.791  65.390  1.00  0.00     0.181 C 
BRANCH   6   7
ATOM      7  CB  TRP B   3      11.681  92.054  65.804  1.00  0.00     0.075 C 
BRANCH   7   8
ATOM      8  CG  TRP B   3      12.378  93.085  64.966  1.00  0.00    -0.028 A 
ATOM      9  CD2 TRP B   3      13.543  92.890  64.155  1.00  0.00    -0.002 A 
ATOM     10  CE2 TRP B   3      13.839  94.123  63.544  1.00  0.00     0.042 A 
ATOM     11  CE3 TRP B   3      14.367  91.792  63.885  1.00  0.00     0.014 A 
ATOM     12  NE1 TRP B   3      12.897  95.026  63.961  1.00  0.00    -0.365 N 
ATOM     13  CZ2 TRP B   3      14.922  94.289  62.683  1.00  0.00     0.030 A 
ATOM     14  HE1 TRP B   3      12.851  95.969  63.697  1.00  0.23     0.165 HD
ATOM     15  CD1 TRP B   3      12.022  94.394  64.814  1.00  0.00     0.096 A 
ATOM     16  CH2 TRP B   3      15.710  93.198  62.440  1.00  0.00     0.002 A 
ATOM     17  CZ3 TRP B   3      15.441  91.958  63.031  1.00  0.00     0.001 A 
ENDBRANCH   7   8
ENDBRANCH   6   7
BRANCH   6  18
ATOM     18  N   TRP B   3       9.349  91.745  66.557  1.00  0.00    -0.346 N 
ATOM     19  C   ILE B   2       9.406  90.744  67.447  1.00  0.00     0.241 C 
ATOM     20  O   ILE B   2      10.207  89.818  67.341  1.00  0.00    -0.271 OA
ATOM     21  H   TRP B   3       8.698  92.467  66.695  1.00  0.23     0.163 HD
BRANCH  19  22
ATOM     22  CA  ILE B   2       8.455  90.840  68.614  1.00  0.00     0.180 C 
BRANCH  22  23
ATOM     23  N   ILE B   2       7.172  90.217  68.297  1.00  0.00    -0.346 N 
ATOM     24  H   ILE B   2       6.998  89.298  68.599  1.00  0.00     0.163 HD
ATOM     25  C   LYS B   1       6.231  90.868  67.608  1.00  0.00     0.254 C 
ATOM     26  O   LYS B   1       6.374  92.041  67.248  1.00  0.00    -0.271 OA
BRANCH  25  27
ATOM     27  CA  LYS B   1       4.957  90.104  67.332  1.00  0.00     0.350 C 
BRANCH  27  28
ATOM     28  CB  LYS B   1       4.696  89.995  65.804  1.00  0.00     0.048 C 
BRANCH  28  29
ATOM     29  CG  LYS B   1       3.903  91.195  65.228  1.00  0.00     0.004 C 
BRANCH  29  30
ATOM     30  CD  LYS B   1       4.409  91.711  63.878  1.00  0.00     0.027 C 
BRANCH  30  31
ATOM     31  CE  LYS B   1       5.298  92.941  64.108  1.00  0.00     0.229 C 
BRANCH  31  32
ATOM     32  NZ  LYS B   1       4.837  93.661  65.307  1.00  0.00    -0.079 N 
ATOM     33  HZ1 LYS B   1       4.762  93.022  66.108  1.00  0.00     0.274 HD
ATOM     34  HZ2 LYS B   1       5.503  94.390  65.585  1.00  0.00     0.274 HD
ATOM     35  HZ3 LYS B   1       3.942  94.065  65.070  1.00  0.00     0.274 HD
ENDBRANCH  31  32
ENDBRANCH  30  31
ENDBRANCH  29  30
ENDBRANCH  28  29
ENDBRANCH  27  28
BRANCH  27  36
ATOM     36  N   LYS B   1       3.814  90.744  67.976  1.00  0.00     0.312 N 
ATOM     37  H   LYS B   1       2.912  90.421  67.506  1.00  0.00     0.359 HD
ENDBRANCH  27  36
ENDBRANCH  25  27
ENDBRANCH  22  23
BRANCH  22  38
ATOM     38  CB  ILE B   2       9.079  90.233  69.936  1.00  0.00     0.013 C 
ATOM     39  CG2 ILE B   2       8.296  90.648  71.220  1.00  0.00     0.012 C 
BRANCH  38  40
ATOM     40  CG1 ILE B   2       9.221  88.677  69.936  1.00  0.00     0.002 C 
ATOM     41  CD1 ILE B   2       8.304  87.917  70.917  1.00  0.00     0.005 C 
ENDBRANCH  38  40
ENDBRANCH  22  38
ENDBRANCH  19  22
ENDBRANCH   6  18
ENDBRANCH   3   6
ENDBRANCH   1   2
BRANCH   1  42
ATOM     42  CB  GLU B   4       8.008  87.710  64.513  1.00  0.00     0.045 C 
BRANCH  42  43
ATOM     43  CG  GLU B   4       8.922  87.040  65.525  1.00  0.00     0.116 C 
BRANCH  43  44
ATOM     44  CD  GLU B   4       8.244  86.801  66.861  1.00  0.00     0.172 C 
ATOM     45  OE2 GLU B   4       7.321  87.570  67.204  1.00  0.00    -0.648 OA
ATOM     46  OE1 GLU B   4       8.635  85.846  67.562  1.00  0.00    -0.648 OA
ENDBRANCH  43  44
ENDBRANCH  42  43
ENDBRANCH   1  42
BRANCH   1  47
ATOM     47  C   GLU B   4       7.902  89.021  62.389  1.00  0.00     0.241 C 
ATOM     48  O   GLU B   4       7.703  90.171  61.997  1.00  0.00    -0.271 OA
ATOM     49  N   THR B   5       7.430  87.948  61.760  1.00  7.70    -0.344 N 
ATOM     50  H   THR B   5       7.624  87.060  62.126  1.00  0.23     0.163 HD
BRANCH  49  51
ATOM     51  CA  THR B   5       6.632  88.056  60.542  1.00  7.88     0.205 C 
BRANCH  51  52
ATOM     52  CB  THR B   5       7.510  87.832  59.310  1.00  4.05     0.146 C 
ATOM     53  CG2 THR B   5       6.716  87.646  58.036  1.00  3.72     0.042 C 
BRANCH  52  54
ATOM     54  OG1 THR B   5       8.387  88.927  59.114  1.00  7.31    -0.393 OA
ATOM     55  HG1 THR B   5       9.288  88.607  59.044  1.00  0.23     0.210 HD
ENDBRANCH  52  54
ENDBRANCH  51  52
BRANCH  51  56
ATOM     56  C   THR B   5       5.490  87.046  60.558  1.00  7.05     0.243 C 
ATOM     57  O   THR B   5       5.715  85.841  60.671  1.00  6.06    -0.271 OA
ATOM     58  N   TRP B   6       4.263  87.543  60.447  1.00  0.00    -0.346 N 
ATOM     59  H   TRP B   6       4.145  88.513  60.361  1.00  0.23     0.163 HD
BRANCH  58  60
ATOM     60  CA  TRP B   6       3.087  86.683  60.453  1.00  0.00     0.181 C 
BRANCH  60  61
ATOM     61  CB  TRP B   6       2.785  86.210  61.875  1.00  0.00     0.075 C 
BRANCH  61  62
ATOM     62  CG  TRP B   6       2.030  84.917  61.913  1.00  0.00    -0.028 A 
ATOM     63  CD2 TRP B   6       2.467  83.686  62.504  1.00  0.00    -0.002 A 
ATOM     64  CE2 TRP B   6       1.440  82.744  62.311  1.00  0.00     0.042 A 
ATOM     65  CE3 TRP B   6       3.627  83.292  63.175  1.00  0.00     0.014 A 
ATOM     66  CZ2 TRP B   6       1.539  81.432  62.767  1.00  0.00     0.030 A 
ATOM     67  NE1 TRP B   6       0.426  83.372  61.635  1.00  0.00    -0.365 N 
ATOM     68  CH2 TRP B   6       2.685  81.071  63.421  1.00  0.00     0.002 A 
ATOM     69  CZ3 TRP B   6       3.724  81.988  63.627  1.00  0.00     0.001 A 
ATOM     70  CD1 TRP B   6       0.789  84.676  61.400  1.00  0.00     0.096 A 
ATOM     71  HE1 TRP B   6      -0.421  82.958  61.363  1.00  0.23     0.165 HD
ENDBRANCH  61  62
ENDBRANCH  60  61
BRANCH  60  72
ATOM     72  C   TRP B   6       1.877  87.410  59.873  1.00  0.00     0.241 C 
ATOM     73  N   VAL B   7       1.910  87.648  58.565  1.00  6.11    -0.344 N 
ATOM     74  H   VAL B   7       2.687  87.354  58.046  1.00  0.23     0.163 HD
ATOM     75  O   TRP B   6       0.939  87.749  60.595  1.00  0.00    -0.271 OA
BRANCH  73  76
ATOM     76  CA  VAL B   7       0.821  88.337  57.885  1.00  5.65     0.189 C 
BRANCH  76  77
ATOM     77  CB  VAL B   7       1.046  89.861  57.875  1.00  1.15     0.010 C 
ATOM     78  CG1 VAL B   7      -0.062  90.570  58.642  1.00  4.96     0.012 C 
ATOM     79  CG2 VAL B   7       2.409  90.208  58.454  1.00  9.83     0.012 C 
ENDBRANCH  76  77
BRANCH  76  80
ATOM     80  C   VAL B   7       0.670  87.845  56.448  1.00  4.44     0.197 C 
ATOM     81  O   VAL B   7       0.084  88.586  55.631  1.00  0.00    -0.646 OA
ATOM     82  OXT VAL B   7       1.137  86.726  56.153  1.00  0.00    -0.646 OA
ENDBRANCH  76  80
ENDBRANCH  73  76
ENDBRANCH  60  72
ENDBRANCH  58  60
ENDBRANCH  51  56
ENDBRANCH  49  51
ENDBRANCH   1  47
TORSDOF 31
ENDMDL
MODEL 2
REMARK VINA RESULT:      -6.7      2.421      6.920
REMARK  31 active torsions:
REMARK  status: ('A' for Active; 'I' for Inactive)
REMARK    1  A    between atoms: N_1  and  CA_2 
REMARK    2  A    between atoms: CA_2  and  CB_5 
REMARK    3  A    between atoms: CA_2  and  C_3 
REMARK       I    between atoms: C_3  and  N_14 
REMARK    4  A    between atoms: CB_5  and  CG_6 
REMARK    5  A    between atoms: CG_6  and  CD_7 
REMARK    6  A    between atoms: CD_7  and  CE_8 
REMARK    7  A    between atoms: CE_8  and  NZ_9 
REMARK    8  A    between atoms: N_14  and  CA_15 
REMARK    9  A    between atoms: CA_15  and  CB_18 
REMARK   10  A    between atoms: CA_15  and  C_16 
REMARK       I    between atoms: C_16  and  N_36 
REMARK   11  A    between atoms: CB_18  and  CG1_19 
REMARK   12  A    between atoms: CA_23  and  CB_25 
REMARK   13  A    between atoms: CA_23  and  C_24 
REMARK   14  A    between atoms: CA_23  and  N_36 
REMARK       I    between atoms: C_24  and  N_45 
REMARK   15  A    between atoms: CB_25  and  CG_26 
REMARK   16  A    between atoms: CA_39  and  N_45 
REMARK   17  A    between atoms: CA_39  and  CB_41 
REMARK   18  A    between atoms: CA_39  and  C_40 
REMARK       I    between atoms: C_40  and  N_55 
REMARK   19  A    between atoms: CB_41  and  CG_42 
REMARK   20  A    between atoms: CG_42  and  CD_43 
REMARK   21  A    between atoms: CA_49  and  N_55 
REMARK   22  A    between atoms: CA_49  and  CB_51 
REMARK   23  A    between atoms: CA_49  and  C_50 
REMARK       I    between atoms: C_50  and  N_71 
REMARK   24  A    between atoms: CB_51  and  OG1_57 
REMARK   25  A    between atoms: CA_58  and  CB_60 
REMARK   26  A    between atoms: CA_58  and  N_71 
REMARK   27  A    between atoms: CA_58  and  C_59 
REMARK       I    between atoms: C_59  and  N_80 
REMARK   28  A    between atoms: CB_60  and  CG_61 
REMARK   29  A    between atoms: CA_74  and  N_80 
REMARK   30  A    between atoms: CA_74  and  CB_76 
REMARK   31  A    between atoms: CA_74  and  C_75 
ROOT
ATOM      1  CA  GLU B   4       7.410  88.865  63.066  1.00  0.00     0.177 C 
ENDROOT
BRANCH   1   2
ATOM      2  N   GLU B   4       6.392  89.764  63.607  1.00  0.00    -0.346 N 
ATOM      3  C   TRP B   3       5.160  89.336  63.869  1.00  0.00     0.241 C 
ATOM      4  O   TRP B   3       4.804  88.175  63.674  1.00  0.00    -0.271 OA
ATOM      5  H   GLU B   4       6.624  90.700  63.781  1.00  0.23     0.163 HD
BRANCH   3   6
ATOM      6  CA  TRP B   3       4.186  90.366  64.433  1.00  0.00     0.181 C 
BRANCH   6   7
ATOM      7  CB  TRP B   3       2.755  90.038  63.981  1.00  0.00     0.075 C 
BRANCH   7   8
ATOM      8  CG  TRP B   3       1.795  89.811  65.111  1.00  0.00    -0.028 A 
ATOM      9  CD2 TRP B   3       1.702  88.646  65.941  1.00  0.00    -0.002 A 
ATOM     10  CE2 TRP B   3       0.670  88.875  66.871  1.00  0.00     0.042 A 
ATOM     11  CE3 TRP B   3       2.391  87.430  65.988  1.00  0.00     0.014 A 
ATOM     12  NE1 TRP B   3       0.160  90.122  66.620  1.00  0.00    -0.365 N 
ATOM     13  CZ2 TRP B   3       0.309  87.935  67.833  1.00  0.00     0.030 A 
ATOM     14  HE1 TRP B   3      -0.572  90.550  67.112  1.00  0.23     0.165 HD
ATOM     15  CD1 TRP B   3       0.842  90.678  65.563  1.00  0.00     0.096 A 
ATOM     16  CH2 TRP B   3       1.000  86.754  67.854  1.00  0.00     0.002 A 
ATOM     17  CZ3 TRP B   3       2.032  86.498  66.944  1.00  0.00     0.001 A 
ENDBRANCH   7   8
ENDBRANCH   6   7
BRANCH   6  18
ATOM     18  N   TRP B   3       4.563  91.720  64.035  1.00  0.00    -0.346 N 
ATOM     19  C   ILE B   2       4.752  92.054  62.750  1.00  0.00     0.241 C 
ATOM     20  O   ILE B   2       4.605  91.247  61.835  1.00  0.00    -0.271 OA
ATOM     21  H   TRP B   3       4.683  92.405  64.727  1.00  0.23     0.163 HD
BRANCH  19  22
ATOM     22  CA  ILE B   2       5.118  93.493  62.487  1.00  0.00     0.180 C 
BRANCH  22  23
ATOM     23  N   ILE B   2       6.536  93.623  62.160  1.00  0.00    -0.346 N 
ATOM     24  H   ILE B   2       6.797  94.081  61.331  1.00  0.00     0.163 HD
ATOM     25  C   LYS B   1       7.485  93.132  62.963  1.00  0.00     0.254 C 
ATOM     26  O   LYS B   1       7.218  92.593  64.042  1.00  0.00    -0.271 OA
BRANCH  25  27
ATOM     27  CA  LYS B   1       8.911  93.317  62.500  1.00  0.00     0.350 C 
BRANCH  27  28
ATOM     28  CB  LYS B   1       9.799  93.873  63.647  1.00  0.00     0.048 C 
BRANCH  28  29
ATOM     29  CG  LYS B   1      11.042  92.998  63.943  1.00  0.00     0.004 C 
BRANCH  29  30
ATOM     30  CD  LYS B   1      10.769  91.493  64.013  1.00  0.00     0.027 C 
BRANCH  30  31
ATOM     31  CE  LYS B   1      10.215  91.144  65.402  1.00  0.00     0.229 C 
BRANCH  31  32
ATOM     32  NZ  LYS B   1      11.189  90.305  66.121  1.00  0.00    -0.079 N 
ATOM     33  HZ1 LYS B   1      11.071  90.402  67.136  1.00  0.00     0.274 HD
ATOM     34  HZ2 LYS B   1      11.053  89.311  65.911  1.00  0.00     0.274 HD
ATOM     35  HZ3 LYS B   1      12.104  90.613  65.822  1.00  0.00     0.274 HD
ENDBRANCH  31  32
ENDBRANCH  30  31
ENDBRANCH  29  30
ENDBRANCH  28  29
ENDBRANCH  27  28
BRANCH  27  36
ATOM     36  N   LYS B   1       8.977  94.217  61.353  1.00  0.00     0.312 N 
ATOM     37  H   LYS B   1       9.996  94.360  61.068  1.00  0.00     0.359 HD
ENDBRANCH  27  36
ENDBRANCH  25  27
ENDBRANCH  22  23
BRANCH  22  38
ATOM     38  CB  ILE B   2       4.207  94.138  61.365  1.00  0.00     0.013 C 
ATOM     39  CG2 ILE B   2       3.729  95.579  61.728  1.00  0.00     0.012 C 
BRANCH  38  40
ATOM     40  CG1 ILE B   2       4.856  94.186  59.945  1.00  0.00     0.002 C 
ATOM     41  CD1 ILE B   2       4.463  93.043  58.986  1.00  0.00     0.005 C 
ENDBRANCH  38  40
ENDBRANCH  22  38
ENDBRANCH  19  22
ENDBRANCH   6  18
ENDBRANCH   3   6
ENDBRANCH   1   2
BRANCH   1  42
ATOM     42  CB  GLU B   4       7.508  87.595  63.912  1.00  0.00     0.045 C 
BRANCH  42  43
ATOM     43  CG  GLU B   4       8.640  87.630  64.926  1.00  0.00     0.116 C 
BRANCH  43  44
ATOM     44  CD  GLU B   4       8.196  88.142  66.283  1.00  0.00     0.172 C 
ATOM     45  OE2 GLU B   4       9.066  88.337  67.157  1.00  0.00    -0.648 OA
ATOM     46  OE1 GLU B   4       6.979  88.348  66.470  1.00  0.00    -0.648 OA
ENDBRANCH  43  44
ENDBRANCH  42  43
ENDBRANCH   1  42
BRANCH   1  47
ATOM     47  C   GLU B   4       7.096  88.497  61.619  1.00  0.00     0.241 C 
ATOM     48  O   GLU B   4       7.446  89.228  60.692  1.00  0.00    -0.271 OA
ATOM     49  N   THR B   5       6.431  87.360  61.435  1.00  7.70    -0.344 N 
ATOM     50  H   THR B   5       6.181  86.824  62.217  1.00  0.23     0.163 HD
BRANCH  49  51
ATOM     51  CA  THR B   5       6.063  86.888  60.103  1.00  7.88     0.205 C 
BRANCH  51  52
ATOM     52  CB  THR B   5       6.980  85.742  59.674  1.00  4.05     0.146 C 
ATOM     53  CG2 THR B   5       6.651  84.428  60.349  1.00  3.72     0.042 C 
BRANCH  52  54
ATOM     54  OG1 THR B   5       6.902  85.536  58.274  1.00  7.31    -0.393 OA
ATOM     55  HG1 THR B   5       7.728  85.802  57.865  1.00  0.23     0.210 HD
ENDBRANCH  52  54
ENDBRANCH  51  52
BRANCH  51  56
ATOM     56  C   THR B   5       4.609  86.428  60.080  1.00  7.05     0.243 C 
ATOM     57  O   THR B   5       4.193  85.699  59.179  1.00  6.06    -0.271 OA
ATOM     58  N   TRP B   6       3.841  86.854  61.077  1.00  0.00    -0.346 N 
ATOM     59  H   TRP B   6       4.229  87.431  61.767  1.00  0.23     0.163 HD
BRANCH  58  60
ATOM     60  CA  TRP B   6       2.435  86.481  61.171  1.00  0.00     0.181 C 
BRANCH  60  61
ATOM     61  CB  TRP B   6       1.975  86.519  62.629  1.00  0.00     0.075 C 
BRANCH  61  62
ATOM     62  CG  TRP B   6       1.421  85.209  63.100  1.00  0.00    -0.028 A 
ATOM     63  CD2 TRP B   6       2.133  83.972  63.223  1.00  0.00    -0.002 A 
ATOM     64  CE2 TRP B   6       1.222  83.014  63.708  1.00  0.00     0.042 A 
ATOM     65  CE3 TRP B   6       3.450  83.582  62.969  1.00  0.00     0.014 A 
ATOM     66  CZ2 TRP B   6       1.589  81.692  63.944  1.00  0.00     0.030 A 
ATOM     67  NE1 TRP B   6       0.013  83.640  63.872  1.00  0.00    -0.365 N 
ATOM     68  CH2 TRP B   6       2.885  81.336  63.686  1.00  0.00     0.002 A 
ATOM     69  CZ3 TRP B   6       3.813  82.268  63.204  1.00  0.00     0.001 A 
ATOM     70  CD1 TRP B   6       0.142  84.957  63.505  1.00  0.00     0.096 A 
ATOM     71  HE1 TRP B   6      -0.808  83.216  64.198  1.00  0.23     0.165 HD
ENDBRANCH  61  62
ENDBRANCH  60  61
BRANCH  60  72
ATOM     72  C   TRP B   6       1.568  87.405  60.322  1.00  0.00     0.241 C 
ATOM     73  N   VAL B   7       1.844  87.435  59.022  1.00  6.11    -0.344 N 
ATOM     74  H   VAL B   7       2.570  86.876  58.676  1.00  0.23     0.163 HD
ATOM     75  O   TRP B   6       0.673  88.078  60.835  1.00  0.00    -0.271 OA
BRANCH  73  76
ATOM     76  CA  VAL B   7       1.094  88.277  58.099  1.00  5.65     0.189 C 
BRANCH  76  77
ATOM     77  CB  VAL B   7       1.789  89.638  57.896  1.00  1.15     0.010 C 
ATOM     78  CG1 VAL B   7       0.939  90.762  58.470  1.00  4.96     0.012 C 
ATOM     79  CG2 VAL B   7       3.174  89.633  58.527  1.00  9.83     0.012 C 
ENDBRANCH  76  77
BRANCH  76  80
ATOM     80  C   VAL B   7       0.926  87.596  56.743  1.00  4.44     0.197 C 
ATOM     81  O   VAL B   7       0.323  88.217  55.843  1.00  0.00    -0.646 OA
ATOM     82  OXT VAL B   7       1.398  86.451  56.594  1.00  0.00    -0.646 OA
ENDBRANCH  76  80
ENDBRANCH  73  76
ENDBRANCH  60  72
ENDBRANCH  58  60
ENDBRANCH  51  56
ENDBRANCH  49  51
ENDBRANCH   1  47
TORSDOF 31
ENDMDL
MODEL 3
REMARK VINA RESULT:      -6.3      2.926      7.705
REMARK  31 active torsions:
REMARK  status: ('A' for Active; 'I' for Inactive)
REMARK    1  A    between atoms: N_1  and  CA_2 
REMARK    2  A    between atoms: CA_2  and  CB_5 
REMARK    3  A    between atoms: CA_2  and  C_3 
REMARK       I    between atoms: C_3  and  N_14 
REMARK    4  A    between atoms: CB_5  and  CG_6 
REMARK    5  A    between atoms: CG_6  and  CD_7 
REMARK    6  A    between atoms: CD_7  and  CE_8 
REMARK    7  A    between atoms: CE_8  and  NZ_9 
REMARK    8  A    between atoms: N_14  and  CA_15 
REMARK    9  A    between atoms: CA_15  and  CB_18 
REMARK   10  A    between atoms: CA_15  and  C_16 
REMARK       I    between atoms: C_16  and  N_36 
REMARK   11  A    between atoms: CB_18  and  CG1_19 
REMARK   12  A    between atoms: CA_23  and  CB_25 
REMARK   13  A    between atoms: CA_23  and  C_24 
REMARK   14  A    between atoms: CA_23  and  N_36 
REMARK       I    between atoms: C_24  and  N_45 
REMARK   15  A    between atoms: CB_25  and  CG_26 
REMARK   16  A    between atoms: CA_39  and  N_45 
REMARK   17  A    between atoms: CA_39  and  CB_41 
REMARK   18  A    between atoms: CA_39  and  C_40 
REMARK       I    between atoms: C_40  and  N_55 
REMARK   19  A    between atoms: CB_41  and  CG_42 
REMARK   20  A    between atoms: CG_42  and  CD_43 
REMARK   21  A    between atoms: CA_49  and  N_55 
REMARK   22  A    between atoms: CA_49  and  CB_51 
REMARK   23  A    between atoms: CA_49  and  C_50 
REMARK       I    between atoms: C_50  and  N_71 
REMARK   24  A    between atoms: CB_51  and  OG1_57 
REMARK   25  A    between atoms: CA_58  and  CB_60 
REMARK   26  A    between atoms: CA_58  and  N_71 
REMARK   27  A    between atoms: CA_58  and  C_59 
REMARK       I    between atoms: C_59  and  N_80 
REMARK   28  A    between atoms: CB_60  and  CG_61 
REMARK   29  A    between atoms: CA_74  and  N_80 
REMARK   30  A    between atoms: CA_74  and  CB_76 
REMARK   31  A    between atoms: CA_74  and  C_75 
ROOT
ATOM      1  CA  GLU B   4       7.492  89.953  65.817  1.00  0.00     0.177 C 
ENDROOT
BRANCH   1   2
ATOM      2  N   GLU B   4       6.491  91.016  65.879  1.00  0.00    -0.346 N 
ATOM      3  C   TRP B   3       5.205  90.744  66.084  1.00  0.00     0.241 C 
ATOM      4  O   TRP B   3       4.783  89.598  66.231  1.00  0.00    -0.271 OA
ATOM      5  H   GLU B   4       6.775  91.947  65.769  1.00  0.23     0.163 HD
BRANCH   3   6
ATOM      6  CA  TRP B   3       4.255  91.937  66.131  1.00  0.00     0.181 C 
BRANCH   6   7
ATOM      7  CB  TRP B   3       2.810  91.466  65.912  1.00  0.00     0.075 C 
BRANCH   7   8
ATOM      8  CG  TRP B   3       1.890  91.761  67.060  1.00  0.00    -0.028 A 
ATOM      9  CD2 TRP B   3       2.000  91.265  68.400  1.00  0.00    -0.002 A 
ATOM     10  CE2 TRP B   3       0.929  91.807  69.136  1.00  0.00     0.042 A 
ATOM     11  CE3 TRP B   3       2.899  90.413  69.051  1.00  0.00     0.014 A 
ATOM     12  NE1 TRP B   3       0.203  92.598  68.285  1.00  0.00    -0.365 N 
ATOM     13  CZ2 TRP B   3       0.732  91.525  70.486  1.00  0.00     0.030 A 
ATOM     14  HE1 TRP B   3      -0.602  93.104  68.521  1.00  0.23     0.165 HD
ATOM     15  CD1 TRP B   3       0.788  92.566  67.040  1.00  0.00     0.096 A 
ATOM     16  CH2 TRP B   3       1.627  90.688  71.094  1.00  0.00     0.002 A 
ATOM     17  CZ3 TRP B   3       2.702  90.135  70.390  1.00  0.00     0.001 A 
ENDBRANCH   7   8
ENDBRANCH   6   7
BRANCH   6  18
ATOM     18  N   TRP B   3       4.632  92.948  65.148  1.00  0.00    -0.346 N 
ATOM     19  C   ILE B   2       4.693  92.673  63.837  1.00  0.00     0.241 C 
ATOM     20  O   ILE B   2       4.423  91.561  63.387  1.00  0.00    -0.271 OA
ATOM     21  H   TRP B   3       4.847  93.856  65.453  1.00  0.23     0.163 HD
BRANCH  19  22
ATOM     22  CA  ILE B   2       5.076  93.821  62.936  1.00  0.00     0.180 C 
BRANCH  22  23
ATOM     23  N   ILE B   2       6.426  93.646  62.409  1.00  0.00    -0.346 N 
ATOM     24  H   ILE B   2       6.578  93.730  61.442  1.00  0.00     0.163 HD
ATOM     25  C   LYS B   1       7.460  93.376  63.212  1.00  0.00     0.254 C 
ATOM     26  O   LYS B   1       7.338  93.312  64.440  1.00  0.00    -0.271 OA
BRANCH  25  27
ATOM     27  CA  LYS B   1       8.801  93.201  62.538  1.00  0.00     0.350 C 
BRANCH  27  28
ATOM     28  CB  LYS B   1       9.959  93.582  63.501  1.00  0.00     0.048 C 
BRANCH  28  29
ATOM     29  CG  LYS B   1      10.867  92.384  63.875  1.00  0.00     0.004 C 
BRANCH  29  30
ATOM     30  CD  LYS B   1      11.676  92.567  65.163  1.00  0.00     0.027 C 
BRANCH  30  31
ATOM     31  CE  LYS B   1      11.581  91.287  66.005  1.00  0.00     0.229 C 
BRANCH  31  32
ATOM     32  NZ  LYS B   1      11.889  90.121  65.160  1.00  0.00    -0.079 N 
ATOM     33  HZ1 LYS B   1      11.711  90.332  64.171  1.00  0.00     0.274 HD
ATOM     34  HZ2 LYS B   1      12.880  89.866  65.222  1.00  0.00     0.274 HD
ATOM     35  HZ3 LYS B   1      11.303  89.367  65.490  1.00  0.00     0.274 HD
ENDBRANCH  31  32
ENDBRANCH  30  31
ENDBRANCH  29  30
ENDBRANCH  28  29
ENDBRANCH  27  28
BRANCH  27  36
ATOM     36  N   LYS B   1       8.888  94.012  61.328  1.00  0.00     0.312 N 
ATOM     37  H   LYS B   1       8.660  95.029  61.561  1.00  0.00     0.359 HD
ENDBRANCH  27  36
ENDBRANCH  25  27
ENDBRANCH  22  23
BRANCH  22  38
ATOM     38  CB  ILE B   2       4.025  94.032  61.771  1.00  0.00     0.013 C 
ATOM     39  CG2 ILE B   2       3.572  95.518  61.628  1.00  0.00     0.012 C 
BRANCH  38  40
ATOM     40  CG1 ILE B   2       4.497  93.532  60.368  1.00  0.00     0.002 C 
ATOM     41  CD1 ILE B   2       5.288  94.550  59.521  1.00  0.00     0.005 C 
ENDBRANCH  38  40
ENDBRANCH  22  38
ENDBRANCH  19  22
ENDBRANCH   6  18
ENDBRANCH   3   6
ENDBRANCH   1   2
BRANCH   1  42
ATOM     42  CB  GLU B   4       6.927  88.650  66.385  1.00  0.00     0.045 C 
BRANCH  42  43
ATOM     43  CG  GLU B   4       7.999  87.651  66.787  1.00  0.00     0.116 C 
BRANCH  43  44
ATOM     44  CD  GLU B   4       7.532  86.692  67.866  1.00  0.00     0.172 C 
ATOM     45  OE2 GLU B   4       8.284  85.748  68.186  1.00  0.00    -0.648 OA
ATOM     46  OE1 GLU B   4       6.416  86.887  68.390  1.00  0.00    -0.648 OA
ENDBRANCH  43  44
ENDBRANCH  42  43
ENDBRANCH   1  42
BRANCH   1  47
ATOM     47  C   GLU B   4       7.959  89.729  64.382  1.00  0.00     0.241 C 
ATOM     48  O   GLU B   4       9.144  89.506  64.133  1.00  0.00    -0.271 OA
ATOM     49  N   THR B   5       7.020  89.795  63.443  1.00  7.70    -0.344 N 
ATOM     50  H   THR B   5       6.094  89.978  63.709  1.00  0.23     0.163 HD
BRANCH  49  51
ATOM     51  CA  THR B   5       7.327  89.604  62.029  1.00  7.88     0.205 C 
BRANCH  51  52
ATOM     52  CB  THR B   5       7.443  88.113  61.708  1.00  4.05     0.146 C 
ATOM     53  CG2 THR B   5       8.785  87.731  61.122  1.00  3.72     0.042 C 
BRANCH  52  54
ATOM     54  OG1 THR B   5       7.246  87.333  62.873  1.00  7.31    -0.393 OA
ATOM     55  HG1 THR B   5       7.891  87.583  63.538  1.00  0.23     0.210 HD
ENDBRANCH  52  54
ENDBRANCH  51  52
BRANCH  51  56
ATOM     56  C   THR B   5       6.253  90.242  61.155  1.00  7.05     0.243 C 
ATOM     57  O   THR B   5       6.401  91.378  60.703  1.00  6.06    -0.271 OA
ATOM     58  N   TRP B   6       5.173  89.505  60.917  1.00  0.00    -0.346 N 
ATOM     59  H   TRP B   6       5.113  88.607  61.303  1.00  0.23     0.163 HD
BRANCH  58  60
ATOM     60  CA  TRP B   6       4.078  90.000  60.093  1.00  0.00     0.181 C 
BRANCH  60  61
ATOM     61  CB  TRP B   6       4.344  89.692  58.619  1.00  0.00     0.075 C 
BRANCH  61  62
ATOM     62  CG  TRP B   6       5.537  88.809  58.414  1.00  0.00    -0.028 A 
ATOM     63  CD2 TRP B   6       5.675  87.445  58.830  1.00  0.00    -0.002 A 
ATOM     64  CE2 TRP B   6       6.951  87.012  58.423  1.00  0.00     0.042 A 
ATOM     65  CE3 TRP B   6       4.843  86.549  59.507  1.00  0.00     0.014 A 
ATOM     66  CZ2 TRP B   6       7.413  85.722  58.671  1.00  0.00     0.030 A 
ATOM     67  NE1 TRP B   6       7.560  88.064  57.789  1.00  0.00    -0.365 N 
ATOM     68  CH2 TRP B   6       6.579  84.865  59.336  1.00  0.00     0.002 A 
ATOM     69  CZ3 TRP B   6       5.305  85.268  59.753  1.00  0.00     0.001 A 
ATOM     70  CD1 TRP B   6       6.704  89.139  57.788  1.00  0.00     0.096 A 
ATOM     71  HE1 TRP B   6       8.460  88.051  57.399  1.00  0.23     0.165 HD
ENDBRANCH  61  62
ENDBRANCH  60  61
BRANCH  60  72
ATOM     72  C   TRP B   6       2.750  89.386  60.527  1.00  0.00     0.241 C 
ATOM     73  N   VAL B   7       2.783  88.639  61.626  1.00  6.11    -0.344 N 
ATOM     74  H   VAL B   7       3.633  88.520  62.097  1.00  0.23     0.163 HD
ATOM     75  O   TRP B   6       1.722  89.583  59.878  1.00  0.00    -0.271 OA
BRANCH  73  76
ATOM     76  CA  VAL B   7       1.585  87.992  62.148  1.00  5.65     0.189 C 
BRANCH  76  77
ATOM     77  CB  VAL B   7       1.706  86.457  62.077  1.00  1.15     0.010 C 
ATOM     78  CG1 VAL B   7       1.434  85.965  60.663  1.00  4.96     0.012 C 
ATOM     79  CG2 VAL B   7       3.078  86.003  62.552  1.00  9.83     0.012 C 
ENDBRANCH  76  77
BRANCH  76  80
ATOM     80  C   VAL B   7       1.321  88.406  63.592  1.00  4.44     0.197 C 
ATOM     81  O   VAL B   7       2.282  88.824  64.271  1.00  0.00    -0.646 OA
ATOM     82  OXT VAL B   7       0.157  88.307  64.033  1.00  0.00    -0.646 OA
ENDBRANCH  76  80
ENDBRANCH  73  76
ENDBRANCH  60  72
ENDBRANCH  58  60
ENDBRANCH  51  56
ENDBRANCH  49  51
ENDBRANCH   1  47
TORSDOF 31
ENDMDL
