MODEL 1
REMARK VINA RESULT:      -6.7      0.000      0.000
REMARK  31 active torsions:
REMARK  status: ('A' for Active; 'I' for Inactive)
REMARK    1  A    between atoms: N_1  and  CA_2 
REMARK    2  A    between atoms: CA_2  and  CB_5 
REMARK    3  A    between atoms: CA_2  and  C_3 
REMARK       I    between atoms: C_3  and  N_14 
REMARK    4  A    between atoms: CB_5  and  CG_6 
REMARK    5  A    between atoms: CG_6  and  CD_7 
REMARK    6  A    between atoms: CD_7  and  CE_8 
REMARK    7  A    between atoms: CE_8  and  NZ_9 
REMARK    8  A    between atoms: N_14  and  CA_15 
REMARK    9  A    between atoms: CA_15  and  C_16 
REMARK   10  A    between atoms: CA_15  and  CB_18 
REMARK       I    between atoms: C_16  and  N_38 
REMARK   11  A    between atoms: CB_18  and  CG_19 
REMARK       I    between atoms: CG_19  and  ND2_20 
REMARK   12  A    between atoms: CA_25  and  CB_27 
REMARK   13  A    between atoms: CA_25  and  C_26 
REMARK   14  A    between atoms: CA_25  and  N_38 
REMARK       I    between atoms: C_26  and  N_47 
REMARK   15  A    between atoms: CB_27  and  CG_28 
REMARK   16  A    between atoms: CA_41  and  N_47 
REMARK   17  A    between atoms: CA_41  and  CB_43 
REMARK   18  A    between atoms: CA_41  and  C_42 
REMARK       I    between atoms: C_42  and  N_57 
REMARK   19  A    between atoms: CB_43  and  CG_44 
REMARK   20  A    between atoms: CG_44  and  CD_45 
REMARK   21  A    between atoms: CA_51  and  N_57 
REMARK   22  A    between atoms: CA_51  and  CB_53 
REMARK   23  A    between atoms: CA_51  and  C_52 
REMARK       I    between atoms: C_52  and  N_73 
REMARK   24  A    between atoms: CB_53  and  OG1_59 
REMARK   25  A    between atoms: CA_60  and  CB_62 
REMARK   26  A    between atoms: CA_60  and  N_73 
REMARK   27  A    between atoms: CA_60  and  C_61 
REMARK       I    between atoms: C_61  and  N_82 
REMARK   28  A    between atoms: CB_62  and  CG_63 
REMARK   29  A    between atoms: CA_76  and  N_82 
REMARK   30  A    between atoms: CA_76  and  CB_78 
REMARK   31  A    between atoms: CA_76  and  C_77 
ROOT
ATOM      1  CA  GLU B   4       6.518  89.212  63.218  1.00  0.00     0.177 C 
ENDROOT
BRANCH   1   2
ATOM      2  N   GLU B   4       7.049  90.549  62.962  1.00  0.00    -0.346 N 
ATOM      3  C   TRP B   3       6.316  91.638  63.178  1.00  0.00     0.241 C 
ATOM      4  O   TRP B   3       5.161  91.590  63.599  1.00  0.00    -0.271 OA
ATOM      5  H   GLU B   4       7.965  90.644  62.627  1.00  0.23     0.163 HD
BRANCH   3   6
ATOM      6  CA  TRP B   3       6.980  92.978  62.877  1.00  0.00     0.181 C 
BRANCH   6   7
ATOM      7  CB  TRP B   3       7.031  93.209  61.360  1.00  0.00     0.075 C 
BRANCH   7   8
ATOM      8  CG  TRP B   3       5.725  92.967  60.661  1.00  0.00    -0.028 A 
ATOM      9  CD2 TRP B   3       5.332  91.782  59.957  1.00  0.00    -0.002 A 
ATOM     10  CE2 TRP B   3       4.028  91.996  59.472  1.00  0.00     0.042 A 
ATOM     11  CE3 TRP B   3       5.957  90.559  59.688  1.00  0.00     0.014 A 
ATOM     12  NE1 TRP B   3       3.644  93.251  59.864  1.00  0.00    -0.365 N 
ATOM     13  CZ2 TRP B   3       3.339  91.036  58.734  1.00  0.00     0.030 A 
ATOM     14  HE1 TRP B   3       2.781  93.673  59.668  1.00  0.23     0.165 HD
ATOM     15  CD1 TRP B   3       4.668  93.827  60.579  1.00  0.00     0.096 A 
ATOM     16  CH2 TRP B   3       3.976  89.851  58.486  1.00  0.00     0.002 A 
ATOM     17  CZ3 TRP B   3       5.272  89.608  58.956  1.00  0.00     0.001 A 
ENDBRANCH   7   8
ENDBRANCH   6   7
BRANCH   6  18
ATOM     18  N   TRP B   3       8.317  93.046  63.462  1.00  0.00    -0.346 N 
ATOM     19  C   ASN B   2       8.506  93.323  64.760  1.00  0.00     0.241 C 
ATOM     20  O   ASN B   2       7.572  93.519  65.533  1.00  0.00    -0.271 OA
ATOM     21  H   TRP B   3       9.098  92.886  62.891  1.00  0.23     0.163 HD
BRANCH  19  22
ATOM     22  CA  ASN B   2       9.943  93.339  65.229  1.00  0.00     0.185 C 
BRANCH  22  23
ATOM     23  N   ASN B   2      10.721  92.298  64.564  1.00  0.00    -0.345 N 
ATOM     24  C   LYS B   1      11.407  91.386  65.258  1.00  0.00     0.254 C 
ATOM     25  O   LYS B   1      11.461  91.405  66.493  1.00  0.00    -0.271 OA
ATOM     26  H   ASN B   2      10.742  92.269  63.582  1.00  0.00     0.163 HD
BRANCH  24  27
ATOM     27  CA  LYS B   1      12.156  90.353  64.448  1.00  0.00     0.350 C 
BRANCH  27  28
ATOM     28  CB  LYS B   1      13.364  90.994  63.712  1.00  0.00     0.048 C 
BRANCH  28  29
ATOM     29  CG  LYS B   1      14.350  91.717  64.663  1.00  0.00     0.004 C 
BRANCH  29  30
ATOM     30  CD  LYS B   1      15.642  92.205  64.001  1.00  0.00     0.027 C 
BRANCH  30  31
ATOM     31  CE  LYS B   1      15.341  92.630  62.557  1.00  0.00     0.229 C 
BRANCH  31  32
ATOM     32  NZ  LYS B   1      15.619  94.069  62.403  1.00  0.00    -0.079 N 
ATOM     33  HZ1 LYS B   1      14.905  94.515  61.815  1.00  0.00     0.274 HD
ATOM     34  HZ2 LYS B   1      15.589  94.554  63.305  1.00  0.00     0.274 HD
ATOM     35  HZ3 LYS B   1      16.537  94.138  61.988  1.00  0.00     0.274 HD
ENDBRANCH  31  32
ENDBRANCH  30  31
ENDBRANCH  29  30
ENDBRANCH  28  29
ENDBRANCH  27  28
BRANCH  27  36
ATOM     36  N   LYS B   1      11.275  89.714  63.474  1.00  0.00     0.312 N 
ATOM     37  H   LYS B   1      10.730  90.462  62.942  1.00  0.00     0.359 HD
ENDBRANCH  27  36
ENDBRANCH  24  27
ENDBRANCH  22  23
BRANCH  22  38
ATOM     38  CB  ASN B   2      10.594  94.726  64.961  1.00  0.00     0.137 C 
BRANCH  38  39
ATOM     39  CG  ASN B   2      11.423  94.866  63.679  1.00  0.00     0.217 C 
ATOM     40  OD1 ASN B   2      12.606  94.567  63.634  1.00  0.00    -0.274 OA
ATOM     41  ND2 ASN B   2      10.850  95.344  62.606  1.00  0.00    -0.370 N 
ATOM     42 2HD2 ASN B   2       9.888  95.667  62.703  1.00  0.00     0.159 HD
ATOM     43 1HD2 ASN B   2      11.522  95.539  61.859  1.00  0.00     0.159 HD
ENDBRANCH  38  39
ENDBRANCH  22  38
ENDBRANCH  19  22
ENDBRANCH   6  18
ENDBRANCH   3   6
ENDBRANCH   1   2
BRANCH   1  44
ATOM     44  CB  GLU B   4       7.424  88.147  62.600  1.00  0.00     0.045 C 
BRANCH  44  45
ATOM     45  CG  GLU B   4       6.746  87.336  61.508  1.00  0.00     0.116 C 
BRANCH  45  46
ATOM     46  CD  GLU B   4       7.622  87.154  60.283  1.00  0.00     0.172 C 
ATOM     47  OE2 GLU B   4       8.444  88.051  60.003  1.00  0.00    -0.648 OA
ATOM     48  OE1 GLU B   4       7.484  86.115  59.605  1.00  0.00    -0.648 OA
ENDBRANCH  45  46
ENDBRANCH  44  45
ENDBRANCH   1  44
BRANCH   1  49
ATOM     49  C   GLU B   4       6.377  88.961  64.717  1.00  0.00     0.241 C 
ATOM     50  O   GLU B   4       7.354  88.651  65.399  1.00  0.00    -0.271 OA
ATOM     51  N   THR B   5       5.153  89.093  65.220  1.00  7.70    -0.344 N 
ATOM     52  H   THR B   5       4.417  89.341  64.622  1.00  0.23     0.163 HD
BRANCH  51  53
ATOM     53  CA  THR B   5       4.874  88.879  66.637  1.00  7.88     0.205 C 
BRANCH  53  54
ATOM     54  CB  THR B   5       4.390  90.177  67.285  1.00  4.05     0.146 C 
ATOM     55  CG2 THR B   5       5.377  90.755  68.276  1.00  3.72     0.042 C 
BRANCH  54  56
ATOM     56  OG1 THR B   5       4.143  91.166  66.301  1.00  7.31    -0.393 OA
ATOM     57  HG1 THR B   5       3.200  91.215  66.126  1.00  0.23     0.210 HD
ENDBRANCH  54  56
ENDBRANCH  53  54
BRANCH  53  58
ATOM     58  C   THR B   5       3.827  87.785  66.819  1.00  7.05     0.243 C 
ATOM     59  O   THR B   5       3.855  87.044  67.801  1.00  6.06    -0.271 OA
ATOM     60  N   TRP B   6       2.903  87.691  65.869  1.00  0.00    -0.346 N 
ATOM     61  H   TRP B   6       2.931  88.311  65.111  1.00  0.23     0.163 HD
BRANCH  60  62
ATOM     62  CA  TRP B   6       1.846  86.690  65.929  1.00  0.00     0.181 C 
BRANCH  62  63
ATOM     63  CB  TRP B   6       0.597  87.279  66.587  1.00  0.00     0.075 C 
BRANCH  63  64
ATOM     64  CG  TRP B   6       0.406  88.733  66.280  1.00  0.00    -0.028 A 
ATOM     65  CD2 TRP B   6       0.638  89.834  67.167  1.00  0.00    -0.002 A 
ATOM     66  CE2 TRP B   6       0.335  91.011  66.457  1.00  0.00     0.042 A 
ATOM     67  CE3 TRP B   6       1.071  89.937  68.491  1.00  0.00     0.014 A 
ATOM     68  CZ2 TRP B   6       0.453  92.275  67.029  1.00  0.00     0.030 A 
ATOM     69  NE1 TRP B   6      -0.062  90.643  65.198  1.00  0.00    -0.365 N 
ATOM     70  CH2 TRP B   6       0.879  92.348  68.328  1.00  0.00     0.002 A 
ATOM     71  CZ3 TRP B   6       1.187  91.194  69.058  1.00  0.00     0.001 A 
ATOM     72  HE1 TRP B   6      -0.335  91.257  64.484  1.00  0.23     0.165 HD
ATOM     73  CD1 TRP B   6      -0.017  89.274  65.100  1.00  0.00     0.096 A 
ENDBRANCH  63  64
ENDBRANCH  62  63
BRANCH  62  74
ATOM     74  C   TRP B   6       1.509  86.169  64.535  1.00  0.00     0.241 C 
ATOM     75  N   VAL B   7       2.448  86.332  63.608  1.00  6.11    -0.344 N 
ATOM     76  H   VAL B   7       3.291  86.766  63.853  1.00  0.23     0.163 HD
ATOM     77  O   TRP B   6       0.423  85.636  64.306  1.00  0.00    -0.271 OA
BRANCH  75  78
ATOM     78  CA  VAL B   7       2.254  85.883  62.235  1.00  5.65     0.189 C 
BRANCH  78  79
ATOM     79  CB  VAL B   7       3.033  86.769  61.243  1.00  1.15     0.010 C 
ATOM     80  CG1 VAL B   7       2.475  86.614  59.836  1.00  4.96     0.012 C 
ATOM     81  CG2 VAL B   7       2.997  88.226  61.681  1.00  9.83     0.012 C 
ENDBRANCH  78  79
BRANCH  78  82
ATOM     82  C   VAL B   7       2.696  84.433  62.062  1.00  4.44     0.197 C 
ATOM     83  O   VAL B   7       3.913  84.172  62.165  1.00  0.00    -0.646 OA
ATOM     84  OXT VAL B   7       1.824  83.573  61.824  1.00  0.00    -0.646 OA
ENDBRANCH  78  82
ENDBRANCH  75  78
ENDBRANCH  62  74
ENDBRANCH  60  62
ENDBRANCH  53  58
ENDBRANCH  51  53
ENDBRANCH   1  49
TORSDOF 31
ENDMDL
MODEL 2
REMARK VINA RESULT:      -6.3      2.488      8.469
REMARK  31 active torsions:
REMARK  status: ('A' for Active; 'I' for Inactive)
REMARK    1  A    between atoms: N_1  and  CA_2 
REMARK    2  A    between atoms: CA_2  and  CB_5 
REMARK    3  A    between atoms: CA_2  and  C_3 
REMARK       I    between atoms: C_3  and  N_14 
REMARK    4  A    between atoms: CB_5  and  CG_6 
REMARK    5  A    between atoms: CG_6  and  CD_7 
REMARK    6  A    between atoms: CD_7  and  CE_8 
REMARK    7  A    between atoms: CE_8  and  NZ_9 
REMARK    8  A    between atoms: N_14  and  CA_15 
REMARK    9  A    between atoms: CA_15  and  C_16 
REMARK   10  A    between atoms: CA_15  and  CB_18 
REMARK       I    between atoms: C_16  and  N_38 
REMARK   11  A    between atoms: CB_18  and  CG_19 
REMARK       I    between atoms: CG_19  and  ND2_20 
REMARK   12  A    between atoms: CA_25  and  CB_27 
REMARK   13  A    between atoms: CA_25  and  C_26 
REMARK   14  A    between atoms: CA_25  and  N_38 
REMARK       I    between atoms: C_26  and  N_47 
REMARK   15  A    between atoms: CB_27  and  CG_28 
REMARK   16  A    between atoms: CA_41  and  N_47 
REMARK   17  A    between atoms: CA_41  and  CB_43 
REMARK   18  A    between atoms: CA_41  and  C_42 
REMARK       I    between atoms: C_42  and  N_57 
REMARK   19  A    between atoms: CB_43  and  CG_44 
REMARK   20  A    between atoms: CG_44  and  CD_45 
REMARK   21  A    between atoms: CA_51  and  N_57 
REMARK   22  A    between atoms: CA_51  and  CB_53 
REMARK   23  A    between atoms: CA_51  and  C_52 
REMARK       I    between atoms: C_52  and  N_73 
REMARK   24  A    between atoms: CB_53  and  OG1_59 
REMARK   25  A    between atoms: CA_60  and  CB_62 
REMARK   26  A    between atoms: CA_60  and  N_73 
REMARK   27  A    between atoms: CA_60  and  C_61 
REMARK       I    between atoms: C_61  and  N_82 
REMARK   28  A    between atoms: CB_62  and  CG_63 
REMARK   29  A    between atoms: CA_76  and  N_82 
REMARK   30  A    between atoms: CA_76  and  CB_78 
REMARK   31  A    between atoms: CA_76  and  C_77 
ROOT
ATOM      1  CA  GLU B   4       5.959  87.344  60.444  1.00  0.00     0.177 C 
ENDROOT
BRANCH   1   2
ATOM      2  N   GLU B   4       4.769  86.902  61.169  1.00  0.00    -0.346 N 
ATOM      3  C   TRP B   3       4.526  85.611  61.379  1.00  0.00     0.241 C 
ATOM      4  O   TRP B   3       5.275  84.720  60.980  1.00  0.00    -0.271 OA
ATOM      5  H   GLU B   4       4.140  87.572  61.509  1.00  0.23     0.163 HD
BRANCH   3   6
ATOM      6  CA  TRP B   3       3.254  85.273  62.151  1.00  0.00     0.181 C 
BRANCH   6   7
ATOM      7  CB  TRP B   3       2.119  84.941  61.171  1.00  0.00     0.075 C 
BRANCH   7   8
ATOM      8  CG  TRP B   3       2.152  85.743  59.903  1.00  0.00    -0.028 A 
ATOM      9  CD2 TRP B   3       1.651  87.072  59.713  1.00  0.00    -0.002 A 
ATOM     10  CE2 TRP B   3       1.902  87.426  58.373  1.00  0.00     0.042 A 
ATOM     11  CE3 TRP B   3       1.014  87.999  60.544  1.00  0.00     0.014 A 
ATOM     12  NE1 TRP B   3       2.528  86.363  57.777  1.00  0.00    -0.365 N 
ATOM     13  CZ2 TRP B   3       1.537  88.663  57.846  1.00  0.00     0.030 A 
ATOM     14  HE1 TRP B   3       2.823  86.323  56.843  1.00  0.23     0.165 HD
ATOM     15  CD1 TRP B   3       2.676  85.357  58.703  1.00  0.00     0.096 A 
ATOM     16  CH2 TRP B   3       0.914  89.547  58.683  1.00  0.00     0.002 A 
ATOM     17  CZ3 TRP B   3       0.653  89.225  60.020  1.00  0.00     0.001 A 
ENDBRANCH   7   8
ENDBRANCH   6   7
BRANCH   6  18
ATOM     18  N   TRP B   3       2.874  86.366  63.042  1.00  0.00    -0.346 N 
ATOM     19  C   ASN B   2       2.281  86.140  64.223  1.00  0.00     0.241 C 
ATOM     20  O   ASN B   2       2.036  85.008  64.630  1.00  0.00    -0.271 OA
ATOM     21  H   TRP B   3       3.058  87.290  62.770  1.00  0.23     0.163 HD
BRANCH  19  22
ATOM     22  CA  ASN B   2       1.965  87.366  65.048  1.00  0.00     0.185 C 
BRANCH  22  23
ATOM     23  N   ASN B   2       3.131  87.793  65.817  1.00  0.00    -0.345 N 
ATOM     24  C   LYS B   1       3.181  87.655  67.145  1.00  0.00     0.254 C 
ATOM     25  O   LYS B   1       2.229  87.211  67.796  1.00  0.00    -0.271 OA
ATOM     26  H   ASN B   2       3.896  88.192  65.347  1.00  0.00     0.163 HD
BRANCH  24  27
ATOM     27  CA  LYS B   1       4.452  88.120  67.817  1.00  0.00     0.350 C 
BRANCH  27  28
ATOM     28  CB  LYS B   1       5.118  86.960  68.607  1.00  0.00     0.048 C 
BRANCH  28  29
ATOM     29  CG  LYS B   1       6.618  86.768  68.271  1.00  0.00     0.004 C 
BRANCH  29  30
ATOM     30  CD  LYS B   1       7.472  86.231  69.422  1.00  0.00     0.027 C 
BRANCH  30  31
ATOM     31  CE  LYS B   1       8.686  85.487  68.847  1.00  0.00     0.229 C 
BRANCH  31  32
ATOM     32  NZ  LYS B   1       8.571  85.423  67.380  1.00  0.00    -0.079 N 
ATOM     33  HZ1 LYS B   1       9.005  86.245  66.946  1.00  0.00     0.274 HD
ATOM     34  HZ2 LYS B   1       9.064  84.607  67.002  1.00  0.00     0.274 HD
ATOM     35  HZ3 LYS B   1       7.583  85.372  67.174  1.00  0.00     0.274 HD
ENDBRANCH  31  32
ENDBRANCH  30  31
ENDBRANCH  29  30
ENDBRANCH  28  29
ENDBRANCH  27  28
BRANCH  27  36
ATOM     36  N   LYS B   1       4.187  89.235  68.722  1.00  0.00     0.312 N 
ATOM     37  H   LYS B   1       4.730  90.095  68.397  1.00  0.00     0.359 HD
ENDBRANCH  27  36
ENDBRANCH  24  27
ENDBRANCH  22  23
BRANCH  22  38
ATOM     38  CB  ASN B   2       1.487  88.534  64.138  1.00  0.00     0.137 C 
BRANCH  38  39
ATOM     39  CG  ASN B   2       1.411  89.925  64.778  1.00  0.00     0.217 C 
ATOM     40  OD1 ASN B   2       0.374  90.368  65.249  1.00  0.00    -0.274 OA
ATOM     41  ND2 ASN B   2       2.483  90.670  64.797  1.00  0.00    -0.370 N 
ATOM     42 2HD2 ASN B   2       3.306  90.307  64.317  1.00  0.00     0.159 HD
ATOM     43 1HD2 ASN B   2       2.288  91.627  65.104  1.00  0.00     0.159 HD
ENDBRANCH  38  39
ENDBRANCH  22  38
ENDBRANCH  19  22
ENDBRANCH   6  18
ENDBRANCH   3   6
ENDBRANCH   1   2
BRANCH   1  44
ATOM     44  CB  GLU B   4       5.689  87.374  58.939  1.00  0.00     0.045 C 
BRANCH  44  45
ATOM     45  CG  GLU B   4       6.903  87.007  58.100  1.00  0.00     0.116 C 
BRANCH  45  46
ATOM     46  CD  GLU B   4       6.972  85.525  57.785  1.00  0.00     0.172 C 
ATOM     47  OE2 GLU B   4       6.462  85.121  56.719  1.00  0.00    -0.648 OA
ATOM     48  OE1 GLU B   4       7.535  84.770  58.605  1.00  0.00    -0.648 OA
ENDBRANCH  45  46
ENDBRANCH  44  45
ENDBRANCH   1  44
BRANCH   1  49
ATOM     49  C   GLU B   4       6.401  88.726  60.916  1.00  0.00     0.241 C 
ATOM     50  O   GLU B   4       7.390  88.859  61.637  1.00  0.00    -0.271 OA
ATOM     51  N   THR B   5       5.658  89.750  60.506  1.00  7.70    -0.344 N 
ATOM     52  H   THR B   5       4.882  89.575  59.934  1.00  0.23     0.163 HD
BRANCH  51  53
ATOM     53  CA  THR B   5       5.965  91.126  60.885  1.00  7.88     0.205 C 
BRANCH  53  54
ATOM     54  CB  THR B   5       5.242  92.105  59.959  1.00  4.05     0.146 C 
ATOM     55  CG2 THR B   5       4.039  91.498  59.269  1.00  3.72     0.042 C 
BRANCH  54  56
ATOM     56  OG1 THR B   5       4.796  93.240  60.679  1.00  7.31    -0.393 OA
ATOM     57  HG1 THR B   5       3.850  93.347  60.554  1.00  0.23     0.210 HD
ENDBRANCH  54  56
ENDBRANCH  53  54
BRANCH  53  58
ATOM     58  C   THR B   5       5.563  91.387  62.333  1.00  7.05     0.243 C 
ATOM     59  O   THR B   5       4.377  91.465  62.653  1.00  6.06    -0.271 OA
ATOM     60  N   TRP B   6       6.557  91.518  63.205  1.00  0.00    -0.346 N 
ATOM     61  H   TRP B   6       7.482  91.444  62.891  1.00  0.23     0.163 HD
BRANCH  60  62
ATOM     62  CA  TRP B   6       6.304  91.765  64.619  1.00  0.00     0.181 C 
BRANCH  62  63
ATOM     63  CB  TRP B   6       6.051  90.445  65.349  1.00  0.00     0.075 C 
BRANCH  63  64
ATOM     64  CG  TRP B   6       7.312  89.776  65.800  1.00  0.00    -0.028 A 
ATOM     65  CD2 TRP B   6       7.897  89.842  67.107  1.00  0.00    -0.002 A 
ATOM     66  CE2 TRP B   6       9.067  89.059  67.080  1.00  0.00     0.042 A 
ATOM     67  CE3 TRP B   6       7.545  90.489  68.295  1.00  0.00     0.014 A 
ATOM     68  CZ2 TRP B   6       9.884  88.906  68.196  1.00  0.00     0.030 A 
ATOM     69  NE1 TRP B   6       9.187  88.541  65.817  1.00  0.00    -0.365 N 
ATOM     70  CH2 TRP B   6       9.517  89.549  69.346  1.00  0.00     0.002 A 
ATOM     71  CZ3 TRP B   6       8.359  90.335  69.403  1.00  0.00     0.001 A 
ATOM     72  HE1 TRP B   6       9.909  87.955  65.507  1.00  0.23     0.165 HD
ATOM     73  CD1 TRP B   6       8.129  88.976  65.055  1.00  0.00     0.096 A 
ENDBRANCH  63  64
ENDBRANCH  62  63
BRANCH  62  74
ATOM     74  C   TRP B   6       7.474  92.504  65.260  1.00  0.00     0.241 C 
ATOM     75  N   VAL B   7       8.664  92.317  64.696  1.00  6.11    -0.344 N 
ATOM     76  H   VAL B   7       8.734  91.730  63.915  1.00  0.23     0.163 HD
ATOM     77  O   TRP B   6       7.302  93.224  66.245  1.00  0.00    -0.271 OA
BRANCH  75  78
ATOM     78  CA  VAL B   7       9.865  92.961  65.212  1.00  5.65     0.189 C 
BRANCH  78  79
ATOM     79  CB  VAL B   7      11.016  91.948  65.371  1.00  1.15     0.010 C 
ATOM     80  CG1 VAL B   7      11.082  91.021  64.166  1.00  4.96     0.012 C 
ATOM     81  CG2 VAL B   7      12.341  92.667  65.573  1.00  9.83     0.012 C 
ENDBRANCH  78  79
BRANCH  78  82
ATOM     82  C   VAL B   7      10.320  94.092  64.294  1.00  4.44     0.197 C 
ATOM     83  O   VAL B   7      10.228  93.923  63.060  1.00  0.00    -0.646 OA
ATOM     84  OXT VAL B   7      10.765  95.135  64.816  1.00  0.00    -0.646 OA
ENDBRANCH  78  82
ENDBRANCH  75  78
ENDBRANCH  62  74
ENDBRANCH  60  62
ENDBRANCH  53  58
ENDBRANCH  51  53
ENDBRANCH   1  49
TORSDOF 31
ENDMDL
MODEL 3
REMARK VINA RESULT:      -6.0      2.974      9.216
REMARK  31 active torsions:
REMARK  status: ('A' for Active; 'I' for Inactive)
REMARK    1  A    between atoms: N_1  and  CA_2 
REMARK    2  A    between atoms: CA_2  and  CB_5 
REMARK    3  A    between atoms: CA_2  and  C_3 
REMARK       I    between atoms: C_3  and  N_14 
REMARK    4  A    between atoms: CB_5  and  CG_6 
REMARK    5  A    between atoms: CG_6  and  CD_7 
REMARK    6  A    between atoms: CD_7  and  CE_8 
REMARK    7  A    between atoms: CE_8  and  NZ_9 
REMARK    8  A    between atoms: N_14  and  CA_15 
REMARK    9  A    between atoms: CA_15  and  C_16 
REMARK   10  A    between atoms: CA_15  and  CB_18 
REMARK       I    between atoms: C_16  and  N_38 
REMARK   11  A    between atoms: CB_18  and  CG_19 
REMARK       I    between atoms: CG_19  and  ND2_20 
REMARK   12  A    between atoms: CA_25  and  CB_27 
REMARK   13  A    between atoms: CA_25  and  C_26 
REMARK   14  A    between atoms: CA_25  and  N_38 
REMARK       I    between atoms: C_26  and  N_47 
REMARK   15  A    between atoms: CB_27  and  CG_28 
REMARK   16  A    between atoms: CA_41  and  N_47 
REMARK   17  A    between atoms: CA_41  and  CB_43 
REMARK   18  A    between atoms: CA_41  and  C_42 
REMARK       I    between atoms: C_42  and  N_57 
REMARK   19  A    between atoms: CB_43  and  CG_44 
REMARK   20  A    between atoms: CG_44  and  CD_45 
REMARK   21  A    between atoms: CA_51  and  N_57 
REMARK   22  A    between atoms: CA_51  and  CB_53 
REMARK   23  A    between atoms: CA_51  and  C_52 
REMARK       I    between atoms: C_52  and  N_73 
REMARK   24  A    between atoms: CB_53  and  OG1_59 
REMARK   25  A    between atoms: CA_60  and  CB_62 
REMARK   26  A    between atoms: CA_60  and  N_73 
REMARK   27  A    between atoms: CA_60  and  C_61 
REMARK       I    between atoms: C_61  and  N_82 
REMARK   28  A    between atoms: CB_62  and  CG_63 
REMARK   29  A    between atoms: CA_76  and  N_82 
REMARK   30  A    between atoms: CA_76  and  CB_78 
REMARK   31  A    between atoms: CA_76  and  C_77 
ROOT
ATOM      1  CA  GLU B   4       3.206  88.262  60.741  1.00  0.00     0.177 C 
ENDROOT
BRANCH   1   2
ATOM      2  N   GLU B   4       2.640  87.683  61.957  1.00  0.00    -0.346 N 
ATOM      3  C   TRP B   3       2.772  86.389  62.234  1.00  0.00     0.241 C 
ATOM      4  O   TRP B   3       3.369  85.608  61.495  1.00  0.00    -0.271 OA
ATOM      5  H   GLU B   4       2.154  88.262  62.582  1.00  0.23     0.163 HD
BRANCH   3   6
ATOM      6  CA  TRP B   3       2.140  85.902  63.535  1.00  0.00     0.181 C 
BRANCH   6   7
ATOM      7  CB  TRP B   3       0.733  85.351  63.260  1.00  0.00     0.075 C 
BRANCH   7   8
ATOM      8  CG  TRP B   3       0.719  83.943  62.742  1.00  0.00    -0.028 A 
ATOM      9  CD2 TRP B   3       1.479  82.835  63.240  1.00  0.00    -0.002 A 
ATOM     10  CE2 TRP B   3       1.142  81.712  62.459  1.00  0.00     0.042 A 
ATOM     11  CE3 TRP B   3       2.413  82.682  64.269  1.00  0.00     0.014 A 
ATOM     12  NE1 TRP B   3       0.219  82.117  61.532  1.00  0.00    -0.365 N 
ATOM     13  CZ2 TRP B   3       1.707  80.457  62.675  1.00  0.00     0.030 A 
ATOM     14  HE1 TRP B   3      -0.197  81.547  60.852  1.00  0.23     0.165 HD
ATOM     15  CD1 TRP B   3      -0.032  83.458  61.709  1.00  0.00     0.096 A 
ATOM     16  CH2 TRP B   3       2.618  80.339  63.688  1.00  0.00     0.002 A 
ATOM     17  CZ3 TRP B   3       2.972  81.436  64.482  1.00  0.00     0.001 A 
ENDBRANCH   7   8
ENDBRANCH   6   7
BRANCH   6  18
ATOM     18  N   TRP B   3       2.100  86.968  64.532  1.00  0.00    -0.346 N 
ATOM     19  C   ASN B   2       2.158  86.709  65.846  1.00  0.00     0.241 C 
ATOM     20  O   ASN B   2       2.262  85.568  66.287  1.00  0.00    -0.271 OA
ATOM     21  H   TRP B   3       2.029  87.900  64.233  1.00  0.23     0.163 HD
BRANCH  19  22
ATOM     22  CA  ASN B   2       2.129  87.914  66.759  1.00  0.00     0.185 C 
BRANCH  22  23
ATOM     23  N   ASN B   2       3.466  88.225  67.256  1.00  0.00    -0.345 N 
ATOM     24  C   LYS B   1       3.720  88.317  68.565  1.00  0.00     0.254 C 
ATOM     25  O   LYS B   1       2.833  88.197  69.417  1.00  0.00    -0.271 OA
ATOM     26  H   ASN B   2       4.195  88.371  66.614  1.00  0.00     0.163 HD
BRANCH  24  27
ATOM     27  CA  LYS B   1       5.149  88.626  68.947  1.00  0.00     0.350 C 
BRANCH  27  28
ATOM     28  CB  LYS B   1       6.038  87.357  68.844  1.00  0.00     0.048 C 
BRANCH  28  29
ATOM     29  CG  LYS B   1       7.000  87.180  70.045  1.00  0.00     0.004 C 
BRANCH  29  30
ATOM     30  CD  LYS B   1       7.949  85.983  69.940  1.00  0.00     0.027 C 
BRANCH  30  31
ATOM     31  CE  LYS B   1       8.163  85.383  71.336  1.00  0.00     0.229 C 
BRANCH  31  32
ATOM     32  NZ  LYS B   1       8.947  84.141  71.220  1.00  0.00    -0.079 N 
ATOM     33  HZ1 LYS B   1       8.669  83.468  71.944  1.00  0.00     0.274 HD
ATOM     34  HZ2 LYS B   1       8.782  83.677  70.321  1.00  0.00     0.274 HD
ATOM     35  HZ3 LYS B   1       9.917  84.408  71.314  1.00  0.00     0.274 HD
ENDBRANCH  31  32
ENDBRANCH  30  31
ENDBRANCH  29  30
ENDBRANCH  28  29
ENDBRANCH  27  28
BRANCH  27  36
ATOM     36  N   LYS B   1       5.223  89.164  70.302  1.00  0.00     0.312 N 
ATOM     37  H   LYS B   1       5.905  88.581  70.881  1.00  0.00     0.359 HD
ENDBRANCH  27  36
ENDBRANCH  24  27
ENDBRANCH  22  23
BRANCH  22  38
ATOM     38  CB  ASN B   2       1.550  89.152  66.016  1.00  0.00     0.137 C 
BRANCH  38  39
ATOM     39  CG  ASN B   2       2.552  90.052  65.283  1.00  0.00     0.217 C 
ATOM     40  OD1 ASN B   2       3.283  89.628  64.401  1.00  0.00    -0.274 OA
ATOM     41  ND2 ASN B   2       2.643  91.308  65.631  1.00  0.00    -0.370 N 
ATOM     42 2HD2 ASN B   2       2.084  91.607  66.429  1.00  0.00     0.159 HD
ATOM     43 1HD2 ASN B   2       3.440  91.777  65.192  1.00  0.00     0.159 HD
ENDBRANCH  38  39
ENDBRANCH  22  38
ENDBRANCH  19  22
ENDBRANCH   6  18
ENDBRANCH   3   6
ENDBRANCH   1   2
BRANCH   1  44
ATOM     44  CB  GLU B   4       2.200  89.200  60.074  1.00  0.00     0.045 C 
BRANCH  44  45
ATOM     45  CG  GLU B   4       0.752  88.841  60.367  1.00  0.00     0.116 C 
BRANCH  45  46
ATOM     46  CD  GLU B   4       0.249  87.692  59.514  1.00  0.00     0.172 C 
ATOM     47  OE2 GLU B   4      -0.044  87.923  58.322  1.00  0.00    -0.648 OA
ATOM     48  OE1 GLU B   4       0.148  86.564  60.038  1.00  0.00    -0.648 OA
ENDBRANCH  45  46
ENDBRANCH  44  45
ENDBRANCH   1  44
BRANCH   1  49
ATOM     49  C   GLU B   4       4.493  89.022  61.049  1.00  0.00     0.241 C 
ATOM     50  O   GLU B   4       5.535  88.419  61.307  1.00  0.00    -0.271 OA
ATOM     51  N   THR B   5       4.410  90.349  61.023  1.00  7.70    -0.344 N 
ATOM     52  H   THR B   5       3.549  90.768  60.811  1.00  0.23     0.163 HD
BRANCH  51  53
ATOM     53  CA  THR B   5       5.563  91.200  61.301  1.00  7.88     0.205 C 
BRANCH  53  54
ATOM     54  CB  THR B   5       5.698  92.279  60.226  1.00  4.05     0.146 C 
ATOM     55  CG2 THR B   5       4.421  92.512  59.449  1.00  3.72     0.042 C 
BRANCH  54  56
ATOM     56  OG1 THR B   5       6.082  93.515  60.801  1.00  7.31    -0.393 OA
ATOM     57  HG1 THR B   5       5.319  93.927  61.212  1.00  0.23     0.210 HD
ENDBRANCH  54  56
ENDBRANCH  53  54
BRANCH  53  58
ATOM     58  C   THR B   5       5.431  91.850  62.675  1.00  7.05     0.243 C 
ATOM     59  O   THR B   5       4.380  92.389  63.019  1.00  6.06    -0.271 OA
ATOM     60  N   TRP B   6       6.503  91.791  63.458  1.00  0.00    -0.346 N 
ATOM     61  H   TRP B   6       7.312  91.347  63.130  1.00  0.23     0.163 HD
BRANCH  60  62
ATOM     62  CA  TRP B   6       6.504  92.371  64.796  1.00  0.00     0.181 C 
BRANCH  62  63
ATOM     63  CB  TRP B   6       6.028  91.338  65.818  1.00  0.00     0.075 C 
BRANCH  63  64
ATOM     64  CG  TRP B   6       6.944  90.157  65.926  1.00  0.00    -0.028 A 
ATOM     65  CD2 TRP B   6       7.927  89.926  66.942  1.00  0.00    -0.002 A 
ATOM     66  CE2 TRP B   6       8.545  88.695  66.651  1.00  0.00     0.042 A 
ATOM     67  CE3 TRP B   6       8.345  90.641  68.068  1.00  0.00     0.014 A 
ATOM     68  CZ2 TRP B   6       9.557  88.165  67.447  1.00  0.00     0.030 A 
ATOM     69  NE1 TRP B   6       7.964  88.201  65.512  1.00  0.00    -0.365 N 
ATOM     70  CH2 TRP B   6       9.948  88.885  68.542  1.00  0.00     0.002 A 
ATOM     71  CZ3 TRP B   6       9.351  90.112  68.856  1.00  0.00     0.001 A 
ATOM     72  HE1 TRP B   6       8.196  87.355  65.074  1.00  0.23     0.165 HD
ATOM     73  CD1 TRP B   6       7.004  89.086  65.084  1.00  0.00     0.096 A 
ENDBRANCH  63  64
ENDBRANCH  62  63
BRANCH  62  74
ATOM     74  C   TRP B   6       7.893  92.879  65.169  1.00  0.00     0.241 C 
ATOM     75  N   VAL B   7       8.901  92.419  64.433  1.00  6.11    -0.344 N 
ATOM     76  H   VAL B   7       8.712  91.793  63.703  1.00  0.23     0.163 HD
ATOM     77  O   TRP B   6       8.047  93.665  66.104  1.00  0.00    -0.271 OA
BRANCH  75  78
ATOM     78  CA  VAL B   7      10.278  92.822  64.685  1.00  5.65     0.189 C 
BRANCH  78  79
ATOM     79  CB  VAL B   7      11.215  91.599  64.741  1.00  1.15     0.010 C 
ATOM     80  CG1 VAL B   7      11.651  91.326  66.174  1.00  4.96     0.012 C 
ATOM     81  CG2 VAL B   7      10.538  90.375  64.142  1.00  9.83     0.012 C 
ENDBRANCH  78  79
BRANCH  78  82
ATOM     82  C   VAL B   7      10.777  93.782  63.609  1.00  4.44     0.197 C 
ATOM     83  O   VAL B   7      11.914  94.281  63.746  1.00  0.00    -0.646 OA
ATOM     84  OXT VAL B   7      10.029  94.028  62.642  1.00  0.00    -0.646 OA
ENDBRANCH  78  82
ENDBRANCH  75  78
ENDBRANCH  62  74
ENDBRANCH  60  62
ENDBRANCH  53  58
ENDBRANCH  51  53
ENDBRANCH   1  49
TORSDOF 31
ENDMDL
MODEL 4
REMARK VINA RESULT:      -5.7      2.704      9.709
REMARK  31 active torsions:
REMARK  status: ('A' for Active; 'I' for Inactive)
REMARK    1  A    between atoms: N_1  and  CA_2 
REMARK    2  A    between atoms: CA_2  and  CB_5 
REMARK    3  A    between atoms: CA_2  and  C_3 
REMARK       I    between atoms: C_3  and  N_14 
REMARK    4  A    between atoms: CB_5  and  CG_6 
REMARK    5  A    between atoms: CG_6  and  CD_7 
REMARK    6  A    between atoms: CD_7  and  CE_8 
REMARK    7  A    between atoms: CE_8  and  NZ_9 
REMARK    8  A    between atoms: N_14  and  CA_15 
REMARK    9  A    between atoms: CA_15  and  C_16 
REMARK   10  A    between atoms: CA_15  and  CB_18 
REMARK       I    between atoms: C_16  and  N_38 
REMARK   11  A    between atoms: CB_18  and  CG_19 
REMARK       I    between atoms: CG_19  and  ND2_20 
REMARK   12  A    between atoms: CA_25  and  CB_27 
REMARK   13  A    between atoms: CA_25  and  C_26 
REMARK   14  A    between atoms: CA_25  and  N_38 
REMARK       I    between atoms: C_26  and  N_47 
REMARK   15  A    between atoms: CB_27  and  CG_28 
REMARK   16  A    between atoms: CA_41  and  N_47 
REMARK   17  A    between atoms: CA_41  and  CB_43 
REMARK   18  A    between atoms: CA_41  and  C_42 
REMARK       I    between atoms: C_42  and  N_57 
REMARK   19  A    between atoms: CB_43  and  CG_44 
REMARK   20  A    between atoms: CG_44  and  CD_45 
REMARK   21  A    between atoms: CA_51  and  N_57 
REMARK   22  A    between atoms: CA_51  and  CB_53 
REMARK   23  A    between atoms: CA_51  and  C_52 
REMARK       I    between atoms: C_52  and  N_73 
REMARK   24  A    between atoms: CB_53  and  OG1_59 
REMARK   25  A    between atoms: CA_60  and  CB_62 
REMARK   26  A    between atoms: CA_60  and  N_73 
REMARK   27  A    between atoms: CA_60  and  C_61 
REMARK       I    between atoms: C_61  and  N_82 
REMARK   28  A    between atoms: CB_62  and  CG_63 
REMARK   29  A    between atoms: CA_76  and  N_82 
REMARK   30  A    between atoms: CA_76  and  CB_78 
REMARK   31  A    between atoms: CA_76  and  C_77 
ROOT
ATOM      1  CA  GLU B   4       3.572  88.106  60.247  1.00  0.00     0.177 C 
ENDROOT
BRANCH   1   2
ATOM      2  N   GLU B   4       2.961  87.543  61.449  1.00  0.00    -0.346 N 
ATOM      3  C   TRP B   3       2.920  86.229  61.654  1.00  0.00     0.241 C 
ATOM      4  O   TRP B   3       3.385  85.417  60.855  1.00  0.00    -0.271 OA
ATOM      5  H   GLU B   4       2.576  88.146  62.119  1.00  0.23     0.163 HD
BRANCH   3   6
ATOM      6  CA  TRP B   3       2.260  85.760  62.947  1.00  0.00     0.181 C 
BRANCH   6   7
ATOM      7  CB  TRP B   3       0.846  85.238  62.654  1.00  0.00     0.075 C 
BRANCH   7   8
ATOM      8  CG  TRP B   3       0.782  83.762  62.389  1.00  0.00    -0.028 A 
ATOM      9  CD2 TRP B   3       1.586  82.743  62.997  1.00  0.00    -0.002 A 
ATOM     10  CE2 TRP B   3       1.177  81.509  62.457  1.00  0.00     0.042 A 
ATOM     11  CE3 TRP B   3       2.613  82.753  63.947  1.00  0.00     0.014 A 
ATOM     12  NE1 TRP B   3       0.170  81.764  61.563  1.00  0.00    -0.365 N 
ATOM     13  CZ2 TRP B   3       1.759  80.300  62.831  1.00  0.00     0.030 A 
ATOM     14  HE1 TRP B   3      -0.308  81.093  61.033  1.00  0.23     0.165 HD
ATOM     15  CD1 TRP B   3      -0.062  83.120  61.530  1.00  0.00     0.096 A 
ATOM     16  CH2 TRP B   3       2.762  80.342  63.760  1.00  0.00     0.002 A 
ATOM     17  CZ3 TRP B   3       3.189  81.553  64.317  1.00  0.00     0.001 A 
ENDBRANCH   7   8
ENDBRANCH   6   7
BRANCH   6  18
ATOM     18  N   TRP B   3       2.228  86.831  63.939  1.00  0.00    -0.346 N 
ATOM     19  C   ASN B   2       2.112  86.576  65.250  1.00  0.00     0.241 C 
ATOM     20  O   ASN B   2       2.042  85.433  65.694  1.00  0.00    -0.271 OA
ATOM     21  H   TRP B   3       2.292  87.763  63.639  1.00  0.23     0.163 HD
BRANCH  19  22
ATOM     22  CA  ASN B   2       2.115  87.782  66.161  1.00  0.00     0.185 C 
BRANCH  22  23
ATOM     23  N   ASN B   2       2.508  87.412  67.517  1.00  0.00    -0.345 N 
ATOM     24  C   LYS B   1       1.623  87.385  68.519  1.00  0.00     0.254 C 
ATOM     25  O   LYS B   1       0.444  87.720  68.362  1.00  0.00    -0.271 OA
ATOM     26  H   ASN B   2       3.445  87.179  67.699  1.00  0.00     0.163 HD
BRANCH  24  27
ATOM     27  CA  LYS B   1       2.156  86.967  69.869  1.00  0.00     0.350 C 
BRANCH  27  28
ATOM     28  CB  LYS B   1       1.646  87.920  70.985  1.00  0.00     0.048 C 
BRANCH  28  29
ATOM     29  CG  LYS B   1       2.414  89.264  71.045  1.00  0.00     0.004 C 
BRANCH  29  30
ATOM     30  CD  LYS B   1       1.610  90.485  70.590  1.00  0.00     0.027 C 
BRANCH  30  31
ATOM     31  CE  LYS B   1       2.109  90.934  69.210  1.00  0.00     0.229 C 
BRANCH  31  32
ATOM     32  NZ  LYS B   1       3.473  90.422  68.992  1.00  0.00    -0.079 N 
ATOM     33  HZ1 LYS B   1       3.500  89.796  68.179  1.00  0.00     0.274 HD
ATOM     34  HZ2 LYS B   1       4.129  91.183  68.788  1.00  0.00     0.274 HD
ATOM     35  HZ3 LYS B   1       3.734  89.940  69.841  1.00  0.00     0.274 HD
ENDBRANCH  31  32
ENDBRANCH  30  31
ENDBRANCH  29  30
ENDBRANCH  28  29
ENDBRANCH  27  28
BRANCH  27  36
ATOM     36  N   LYS B   1       3.616  86.950  69.873  1.00  0.00     0.312 N 
ATOM     37  H   LYS B   1       3.970  86.468  68.989  1.00  0.00     0.359 HD
ENDBRANCH  27  36
ENDBRANCH  24  27
ENDBRANCH  22  23
BRANCH  22  38
ATOM     38  CB  ASN B   2       3.080  88.877  65.621  1.00  0.00     0.137 C 
BRANCH  38  39
ATOM     39  CG  ASN B   2       2.524  90.301  65.516  1.00  0.00     0.217 C 
ATOM     40  OD1 ASN B   2       3.247  91.286  65.538  1.00  0.00    -0.274 OA
ATOM     41  ND2 ASN B   2       1.231  90.469  65.424  1.00  0.00    -0.370 N 
ATOM     42 2HD2 ASN B   2       0.652  89.634  65.499  1.00  0.00     0.159 HD
ATOM     43 1HD2 ASN B   2       0.958  91.451  65.514  1.00  0.00     0.159 HD
ENDBRANCH  38  39
ENDBRANCH  22  38
ENDBRANCH  19  22
ENDBRANCH   6  18
ENDBRANCH   3   6
ENDBRANCH   1   2
BRANCH   1  44
ATOM     44  CB  GLU B   4       2.664  89.173  59.634  1.00  0.00     0.045 C 
BRANCH  44  45
ATOM     45  CG  GLU B   4       2.020  88.740  58.327  1.00  0.00     0.116 C 
BRANCH  45  46
ATOM     46  CD  GLU B   4       1.378  87.368  58.415  1.00  0.00     0.172 C 
ATOM     47  OE2 GLU B   4       1.771  86.478  57.633  1.00  0.00    -0.648 OA
ATOM     48  OE1 GLU B   4       0.483  87.187  59.266  1.00  0.00    -0.648 OA
ENDBRANCH  45  46
ENDBRANCH  44  45
ENDBRANCH   1  44
BRANCH   1  49
ATOM     49  C   GLU B   4       4.936  88.711  60.563  1.00  0.00     0.241 C 
ATOM     50  O   GLU B   4       5.921  87.991  60.730  1.00  0.00    -0.271 OA
ATOM     51  N   THR B   5       4.984  90.037  60.648  1.00  7.70    -0.344 N 
ATOM     52  H   THR B   5       4.162  90.552  60.506  1.00  0.23     0.163 HD
BRANCH  51  53
ATOM     53  CA  THR B   5       6.223  90.748  60.948  1.00  7.88     0.205 C 
BRANCH  53  54
ATOM     54  CB  THR B   5       6.136  92.195  60.460  1.00  4.05     0.146 C 
ATOM     55  CG2 THR B   5       4.746  92.594  60.017  1.00  3.72     0.042 C 
BRANCH  54  56
ATOM     56  OG1 THR B   5       6.534  93.092  61.481  1.00  7.31    -0.393 OA
ATOM     57  HG1 THR B   5       6.795  93.928  61.089  1.00  0.23     0.210 HD
ENDBRANCH  54  56
ENDBRANCH  53  54
BRANCH  53  58
ATOM     58  C   THR B   5       6.510  90.720  62.445  1.00  7.05     0.243 C 
ATOM     59  O   THR B   5       5.598  90.842  63.264  1.00  6.06    -0.271 OA
ATOM     60  N   TRP B   6       7.780  90.555  62.798  1.00  0.00    -0.346 N 
ATOM     61  H   TRP B   6       8.462  90.462  62.101  1.00  0.23     0.163 HD
BRANCH  60  62
ATOM     62  CA  TRP B   6       8.183  90.507  64.198  1.00  0.00     0.181 C 
BRANCH  62  63
ATOM     63  CB  TRP B   6       8.454  89.063  64.620  1.00  0.00     0.075 C 
BRANCH  63  64
ATOM     64  CG  TRP B   6       7.704  88.665  65.855  1.00  0.00    -0.028 A 
ATOM     65  CD2 TRP B   6       7.947  87.512  66.670  1.00  0.00    -0.002 A 
ATOM     66  CE2 TRP B   6       7.014  87.542  67.723  1.00  0.00     0.042 A 
ATOM     67  CE3 TRP B   6       8.863  86.458  66.611  1.00  0.00     0.014 A 
ATOM     68  CZ2 TRP B   6       6.971  86.559  68.708  1.00  0.00     0.030 A 
ATOM     69  NE1 TRP B   6       6.239  88.661  67.556  1.00  0.00    -0.365 N 
ATOM     70  CH2 TRP B   6       7.878  85.538  68.626  1.00  0.00     0.002 A 
ATOM     71  CZ3 TRP B   6       8.819  85.482  67.591  1.00  0.00     0.001 A 
ATOM     72  HE1 TRP B   6       5.505  88.940  68.142  1.00  0.23     0.165 HD
ATOM     73  CD1 TRP B   6       6.661  89.329  66.431  1.00  0.00     0.096 A 
ENDBRANCH  63  64
ENDBRANCH  62  63
BRANCH  62  74
ATOM     74  C   TRP B   6       9.421  91.366  64.438  1.00  0.00     0.241 C 
ATOM     75  N   VAL B   7      10.517  90.717  64.819  1.00  6.11    -0.344 N 
ATOM     76  H   VAL B   7      10.483  89.744  64.925  1.00  0.23     0.163 HD
ATOM     77  O   TRP B   6       9.381  92.587  64.285  1.00  0.00    -0.271 OA
BRANCH  75  78
ATOM     78  CA  VAL B   7      11.767  91.417  65.086  1.00  5.65     0.189 C 
BRANCH  78  79
ATOM     79  CB  VAL B   7      12.517  90.785  66.275  1.00  1.15     0.010 C 
ATOM     80  CG1 VAL B   7      13.406  91.817  66.954  1.00  4.96     0.012 C 
ATOM     81  CG2 VAL B   7      11.537  90.179  67.268  1.00  9.83     0.012 C 
ENDBRANCH  78  79
BRANCH  78  82
ATOM     82  C   VAL B   7      12.677  91.406  63.860  1.00  4.44     0.197 C 
ATOM     83  O   VAL B   7      12.823  90.329  63.245  1.00  0.00    -0.646 OA
ATOM     84  OXT VAL B   7      13.234  92.471  63.528  1.00  0.00    -0.646 OA
ENDBRANCH  78  82
ENDBRANCH  75  78
ENDBRANCH  62  74
ENDBRANCH  60  62
ENDBRANCH  53  58
ENDBRANCH  51  53
ENDBRANCH   1  49
TORSDOF 31
ENDMDL
MODEL 5
REMARK VINA RESULT:      -4.9      2.721      9.687
REMARK  31 active torsions:
REMARK  status: ('A' for Active; 'I' for Inactive)
REMARK    1  A    between atoms: N_1  and  CA_2 
REMARK    2  A    between atoms: CA_2  and  CB_5 
REMARK    3  A    between atoms: CA_2  and  C_3 
REMARK       I    between atoms: C_3  and  N_14 
REMARK    4  A    between atoms: CB_5  and  CG_6 
REMARK    5  A    between atoms: CG_6  and  CD_7 
REMARK    6  A    between atoms: CD_7  and  CE_8 
REMARK    7  A    between atoms: CE_8  and  NZ_9 
REMARK    8  A    between atoms: N_14  and  CA_15 
REMARK    9  A    between atoms: CA_15  and  C_16 
REMARK   10  A    between atoms: CA_15  and  CB_18 
REMARK       I    between atoms: C_16  and  N_38 
REMARK   11  A    between atoms: CB_18  and  CG_19 
REMARK       I    between atoms: CG_19  and  ND2_20 
REMARK   12  A    between atoms: CA_25  and  CB_27 
REMARK   13  A    between atoms: CA_25  and  C_26 
REMARK   14  A    between atoms: CA_25  and  N_38 
REMARK       I    between atoms: C_26  and  N_47 
REMARK   15  A    between atoms: CB_27  and  CG_28 
REMARK   16  A    between atoms: CA_41  and  N_47 
REMARK   17  A    between atoms: CA_41  and  CB_43 
REMARK   18  A    between atoms: CA_41  and  C_42 
REMARK       I    between atoms: C_42  and  N_57 
REMARK   19  A    between atoms: CB_43  and  CG_44 
REMARK   20  A    between atoms: CG_44  and  CD_45 
REMARK   21  A    between atoms: CA_51  and  N_57 
REMARK   22  A    between atoms: CA_51  and  CB_53 
REMARK   23  A    between atoms: CA_51  and  C_52 
REMARK       I    between atoms: C_52  and  N_73 
REMARK   24  A    between atoms: CB_53  and  OG1_59 
REMARK   25  A    between atoms: CA_60  and  CB_62 
REMARK   26  A    between atoms: CA_60  and  N_73 
REMARK   27  A    between atoms: CA_60  and  C_61 
REMARK       I    between atoms: C_61  and  N_82 
REMARK   28  A    between atoms: CB_62  and  CG_63 
REMARK   29  A    between atoms: CA_76  and  N_82 
REMARK   30  A    between atoms: CA_76  and  CB_78 
REMARK   31  A    between atoms: CA_76  and  C_77 
ROOT
ATOM      1  CA  GLU B   4       4.041  89.330  59.665  1.00  0.00     0.177 C 
ENDROOT
BRANCH   1   2
ATOM      2  N   GLU B   4       3.595  88.801  60.953  1.00  0.00    -0.346 N 
ATOM      3  C   TRP B   3       3.776  87.524  61.276  1.00  0.00     0.241 C 
ATOM      4  O   TRP B   3       4.319  86.717  60.522  1.00  0.00    -0.271 OA
ATOM      5  H   GLU B   4       3.157  89.402  61.591  1.00  0.23     0.163 HD
BRANCH   3   6
ATOM      6  CA  TRP B   3       3.270  87.090  62.649  1.00  0.00     0.181 C 
BRANCH   6   7
ATOM      7  CB  TRP B   3       1.954  86.313  62.502  1.00  0.00     0.075 C 
BRANCH   7   8
ATOM      8  CG  TRP B   3       1.727  85.287  63.573  1.00  0.00    -0.028 A 
ATOM      9  CD2 TRP B   3       2.395  84.027  63.714  1.00  0.00    -0.002 A 
ATOM     10  CE2 TRP B   3       1.871  83.401  64.861  1.00  0.00     0.042 A 
ATOM     11  CE3 TRP B   3       3.386  83.366  62.981  1.00  0.00     0.014 A 
ATOM     12  NE1 TRP B   3       0.930  84.242  65.395  1.00  0.00    -0.365 N 
ATOM     13  CZ2 TRP B   3       2.302  82.148  65.291  1.00  0.00     0.030 A 
ATOM     14  HE1 TRP B   3       0.398  84.067  66.199  1.00  0.23     0.165 HD
ATOM     15  CD1 TRP B   3       0.850  85.373  64.616  1.00  0.00     0.096 A 
ATOM     16  CH2 TRP B   3       3.271  81.526  64.552  1.00  0.00     0.002 A 
ATOM     17  CZ3 TRP B   3       3.813  82.123  63.408  1.00  0.00     0.001 A 
ENDBRANCH   7   8
ENDBRANCH   6   7
BRANCH   6  18
ATOM     18  N   TRP B   3       3.106  88.238  63.535  1.00  0.00    -0.346 N 
ATOM     19  C   ASN B   2       4.158  88.906  64.030  1.00  0.00     0.241 C 
ATOM     20  O   ASN B   2       5.316  88.603  63.757  1.00  0.00    -0.271 OA
ATOM     21  H   TRP B   3       2.200  88.530  63.777  1.00  0.23     0.163 HD
BRANCH  19  22
ATOM     22  CA  ASN B   2       3.834  90.086  64.917  1.00  0.00     0.185 C 
BRANCH  22  23
ATOM     23  N   ASN B   2       2.421  90.088  65.288  1.00  0.00    -0.345 N 
ATOM     24  C   LYS B   1       1.852  91.151  65.865  1.00  0.00     0.254 C 
ATOM     25  O   LYS B   1       2.498  92.162  66.161  1.00  0.00    -0.271 OA
ATOM     26  H   ASN B   2       1.877  89.289  65.110  1.00  0.00     0.163 HD
BRANCH  24  27
ATOM     27  CA  LYS B   1       0.379  91.030  66.181  1.00  0.00     0.350 C 
BRANCH  27  28
ATOM     28  CB  LYS B   1       0.023  91.816  67.473  1.00  0.00     0.048 C 
BRANCH  28  29
ATOM     29  CG  LYS B   1       0.250  91.001  68.771  1.00  0.00     0.004 C 
BRANCH  29  30
ATOM     30  CD  LYS B   1       1.592  91.253  69.464  1.00  0.00     0.027 C 
BRANCH  30  31
ATOM     31  CE  LYS B   1       1.883  90.102  70.436  1.00  0.00     0.229 C 
BRANCH  31  32
ATOM     32  NZ  LYS B   1       3.327  89.812  70.433  1.00  0.00    -0.079 N 
ATOM     33  HZ1 LYS B   1       3.795  90.306  69.663  1.00  0.00     0.274 HD
ATOM     34  HZ2 LYS B   1       3.776  90.138  71.295  1.00  0.00     0.274 HD
ATOM     35  HZ3 LYS B   1       3.416  88.810  70.338  1.00  0.00     0.274 HD
ENDBRANCH  31  32
ENDBRANCH  30  31
ENDBRANCH  29  30
ENDBRANCH  28  29
ENDBRANCH  27  28
BRANCH  27  36
ATOM     36  N   LYS B   1      -0.008  89.631  66.340  1.00  0.00     0.312 N 
ATOM     37  H   LYS B   1      -0.686  89.358  65.562  1.00  0.00     0.359 HD
ENDBRANCH  27  36
ENDBRANCH  24  27
ENDBRANCH  22  23
BRANCH  22  38
ATOM     38  CB  ASN B   2       4.708  90.064  66.203  1.00  0.00     0.137 C 
BRANCH  38  39
ATOM     39  CG  ASN B   2       4.527  88.867  67.144  1.00  0.00     0.217 C 
ATOM     40  OD1 ASN B   2       3.433  88.541  67.578  1.00  0.00    -0.274 OA
ATOM     41  ND2 ASN B   2       5.581  88.190  67.514  1.00  0.00    -0.370 N 
ATOM     42 2HD2 ASN B   2       6.487  88.543  67.207  1.00  0.00     0.159 HD
ATOM     43 1HD2 ASN B   2       5.372  87.516  68.255  1.00  0.00     0.159 HD
ENDBRANCH  38  39
ENDBRANCH  22  38
ENDBRANCH  19  22
ENDBRANCH   6  18
ENDBRANCH   3   6
ENDBRANCH   1   2
BRANCH   1  44
ATOM     44  CB  GLU B   4       3.008  90.305  59.099  1.00  0.00     0.045 C 
BRANCH  44  45
ATOM     45  CG  GLU B   4       1.584  89.774  59.151  1.00  0.00     0.116 C 
BRANCH  45  46
ATOM     46  CD  GLU B   4       0.955  89.649  57.776  1.00  0.00     0.172 C 
ATOM     47  OE2 GLU B   4       1.428  88.811  56.981  1.00  0.00    -0.648 OA
ATOM     48  OE1 GLU B   4      -0.011  90.389  57.497  1.00  0.00    -0.648 OA
ENDBRANCH  45  46
ENDBRANCH  44  45
ENDBRANCH   1  44
BRANCH   1  49
ATOM     49  C   GLU B   4       5.389  90.031  59.803  1.00  0.00     0.241 C 
ATOM     50  O   GLU B   4       6.369  89.643  59.165  1.00  0.00    -0.271 OA
ATOM     51  N   THR B   5       5.430  91.062  60.642  1.00  7.70    -0.344 N 
ATOM     52  H   THR B   5       4.614  91.318  61.120  1.00  0.23     0.163 HD
BRANCH  51  53
ATOM     53  CA  THR B   5       6.656  91.821  60.872  1.00  7.88     0.205 C 
BRANCH  53  54
ATOM     54  CB  THR B   5       6.568  93.189  60.195  1.00  4.05     0.146 C 
ATOM     55  CG2 THR B   5       5.424  94.037  60.707  1.00  3.72     0.042 C 
BRANCH  54  56
ATOM     56  OG1 THR B   5       7.765  93.922  60.389  1.00  7.31    -0.393 OA
ATOM     57  HG1 THR B   5       8.324  93.831  59.614  1.00  0.23     0.210 HD
ENDBRANCH  54  56
ENDBRANCH  53  54
BRANCH  53  58
ATOM     58  C   THR B   5       6.907  91.995  62.367  1.00  7.05     0.243 C 
ATOM     59  O   THR B   5       5.970  92.011  63.165  1.00  6.06    -0.271 OA
ATOM     60  N   TRP B   6       8.176  92.123  62.739  1.00  0.00    -0.346 N 
ATOM     61  H   TRP B   6       8.879  92.102  62.057  1.00  0.23     0.163 HD
BRANCH  60  62
ATOM     62  CA  TRP B   6       8.547  92.292  64.138  1.00  0.00     0.181 C 
BRANCH  62  63
ATOM     63  CB  TRP B   6       8.665  90.929  64.821  1.00  0.00     0.075 C 
BRANCH  63  64
ATOM     64  CG  TRP B   6       8.270  90.963  66.266  1.00  0.00    -0.028 A 
ATOM     65  CD2 TRP B   6       8.807  90.155  67.320  1.00  0.00    -0.002 A 
ATOM     66  CE2 TRP B   6       8.151  90.529  68.508  1.00  0.00     0.042 A 
ATOM     67  CE3 TRP B   6       9.777  89.150  67.374  1.00  0.00     0.014 A 
ATOM     68  CZ2 TRP B   6       8.436  89.935  69.734  1.00  0.00     0.030 A 
ATOM     69  NE1 TRP B   6       7.257  91.520  68.190  1.00  0.00    -0.365 N 
ATOM     70  CH2 TRP B   6       9.389  88.954  69.759  1.00  0.00     0.002 A 
ATOM     71  CZ3 TRP B   6      10.058  88.561  68.593  1.00  0.00     0.001 A 
ATOM     72  HE1 TRP B   6       6.660  91.973  68.822  1.00  0.23     0.165 HD
ATOM     73  CD1 TRP B   6       7.336  91.774  66.842  1.00  0.00     0.096 A 
ENDBRANCH  63  64
ENDBRANCH  62  63
BRANCH  62  74
ATOM     74  C   TRP B   6       9.860  93.059  64.265  1.00  0.00     0.241 C 
ATOM     75  N   VAL B   7      10.876  92.602  63.538  1.00  6.11    -0.344 N 
ATOM     76  H   VAL B   7      10.740  91.817  62.969  1.00  0.23     0.163 HD
ATOM     77  O   TRP B   6       9.950  94.038  65.006  1.00  0.00    -0.271 OA
BRANCH  75  78
ATOM     78  CA  VAL B   7      12.186  93.240  63.569  1.00  5.65     0.189 C 
BRANCH  78  79
ATOM     79  CB  VAL B   7      12.057  94.774  63.647  1.00  1.15     0.010 C 
ATOM     80  CG1 VAL B   7      13.412  95.410  63.923  1.00  4.96     0.012 C 
ATOM     81  CG2 VAL B   7      11.452  95.329  62.366  1.00  9.83     0.012 C 
ENDBRANCH  78  79
BRANCH  78  82
ATOM     82  C   VAL B   7      13.011  92.748  64.754  1.00  4.44     0.197 C 
ATOM     83  O   VAL B   7      12.531  92.877  65.900  1.00  0.00    -0.646 OA
ATOM     84  OXT VAL B   7      14.127  92.239  64.528  1.00  0.00    -0.646 OA
ENDBRANCH  78  82
ENDBRANCH  75  78
ENDBRANCH  62  74
ENDBRANCH  60  62
ENDBRANCH  53  58
ENDBRANCH  51  53
ENDBRANCH   1  49
TORSDOF 31
ENDMDL
MODEL 6
REMARK VINA RESULT:      -4.0      2.386      9.832
REMARK  31 active torsions:
REMARK  status: ('A' for Active; 'I' for Inactive)
REMARK    1  A    between atoms: N_1  and  CA_2 
REMARK    2  A    between atoms: CA_2  and  CB_5 
REMARK    3  A    between atoms: CA_2  and  C_3 
REMARK       I    between atoms: C_3  and  N_14 
REMARK    4  A    between atoms: CB_5  and  CG_6 
REMARK    5  A    between atoms: CG_6  and  CD_7 
REMARK    6  A    between atoms: CD_7  and  CE_8 
REMARK    7  A    between atoms: CE_8  and  NZ_9 
REMARK    8  A    between atoms: N_14  and  CA_15 
REMARK    9  A    between atoms: CA_15  and  C_16 
REMARK   10  A    between atoms: CA_15  and  CB_18 
REMARK       I    between atoms: C_16  and  N_38 
REMARK   11  A    between atoms: CB_18  and  CG_19 
REMARK       I    between atoms: CG_19  and  ND2_20 
REMARK   12  A    between atoms: CA_25  and  CB_27 
REMARK   13  A    between atoms: CA_25  and  C_26 
REMARK   14  A    between atoms: CA_25  and  N_38 
REMARK       I    between atoms: C_26  and  N_47 
REMARK   15  A    between atoms: CB_27  and  CG_28 
REMARK   16  A    between atoms: CA_41  and  N_47 
REMARK   17  A    between atoms: CA_41  and  CB_43 
REMARK   18  A    between atoms: CA_41  and  C_42 
REMARK       I    between atoms: C_42  and  N_57 
REMARK   19  A    between atoms: CB_43  and  CG_44 
REMARK   20  A    between atoms: CG_44  and  CD_45 
REMARK   21  A    between atoms: CA_51  and  N_57 
REMARK   22  A    between atoms: CA_51  and  CB_53 
REMARK   23  A    between atoms: CA_51  and  C_52 
REMARK       I    between atoms: C_52  and  N_73 
REMARK   24  A    between atoms: CB_53  and  OG1_59 
REMARK   25  A    between atoms: CA_60  and  CB_62 
REMARK   26  A    between atoms: CA_60  and  N_73 
REMARK   27  A    between atoms: CA_60  and  C_61 
REMARK       I    between atoms: C_61  and  N_82 
REMARK   28  A    between atoms: CB_62  and  CG_63 
REMARK   29  A    between atoms: CA_76  and  N_82 
REMARK   30  A    between atoms: CA_76  and  CB_78 
REMARK   31  A    between atoms: CA_76  and  C_77 
ROOT
ATOM      1  CA  GLU B   4       4.705  89.825  59.557  1.00  0.00     0.177 C 
ENDROOT
BRANCH   1   2
ATOM      2  N   GLU B   4       4.174  89.139  60.733  1.00  0.00    -0.346 N 
ATOM      3  C   TRP B   3       4.411  87.847  60.946  1.00  0.00     0.241 C 
ATOM      4  O   TRP B   3       5.079  87.158  60.177  1.00  0.00    -0.271 OA
ATOM      5  H   GLU B   4       3.635  89.642  61.378  1.00  0.23     0.163 HD
BRANCH   3   6
ATOM      6  CA  TRP B   3       3.806  87.243  62.210  1.00  0.00     0.181 C 
BRANCH   6   7
ATOM      7  CB  TRP B   3       2.309  86.975  61.999  1.00  0.00     0.075 C 
BRANCH   7   8
ATOM      8  CG  TRP B   3       1.952  85.518  61.937  1.00  0.00    -0.028 A 
ATOM      9  CD2 TRP B   3       1.917  84.594  63.031  1.00  0.00    -0.002 A 
ATOM     10  CE2 TRP B   3       1.522  83.346  62.512  1.00  0.00     0.042 A 
ATOM     11  CE3 TRP B   3       2.181  84.698  64.400  1.00  0.00     0.014 A 
ATOM     12  NE1 TRP B   3       1.324  83.504  61.165  1.00  0.00    -0.365 N 
ATOM     13  CZ2 TRP B   3       1.388  82.213  63.312  1.00  0.00     0.030 A 
ATOM     14  HE1 TRP B   3       1.045  82.801  60.542  1.00  0.23     0.165 HD
ATOM     15  CD1 TRP B   3       1.582  84.812  60.828  1.00  0.00     0.096 A 
ATOM     16  CH2 TRP B   3       1.655  82.346  64.647  1.00  0.00     0.002 A 
ATOM     17  CZ3 TRP B   3       2.048  83.574  65.193  1.00  0.00     0.001 A 
ENDBRANCH   7   8
ENDBRANCH   6   7
BRANCH   6  18
ATOM     18  N   TRP B   3       4.026  88.109  63.365  1.00  0.00    -0.346 N 
ATOM     19  C   ASN B   2       5.252  88.527  63.711  1.00  0.00     0.241 C 
ATOM     20  O   ASN B   2       6.255  88.221  63.073  1.00  0.00    -0.271 OA
ATOM     21  H   TRP B   3       3.257  88.394  63.902  1.00  0.23     0.163 HD
BRANCH  19  22
ATOM     22  CA  ASN B   2       5.324  89.437  64.915  1.00  0.00     0.185 C 
BRANCH  22  23
ATOM     23  N   ASN B   2       4.011  89.995  65.228  1.00  0.00    -0.345 N 
ATOM     24  C   LYS B   1       3.873  91.037  66.053  1.00  0.00     0.254 C 
ATOM     25  O   LYS B   1       4.837  91.547  66.634  1.00  0.00    -0.271 OA
ATOM     26  H   ASN B   2       3.211  89.594  64.822  1.00  0.00     0.163 HD
BRANCH  24  27
ATOM     27  CA  LYS B   1       2.462  91.529  66.277  1.00  0.00     0.350 C 
BRANCH  27  28
ATOM     28  CB  LYS B   1       2.073  91.435  67.778  1.00  0.00     0.048 C 
BRANCH  28  29
ATOM     29  CG  LYS B   1       1.849  89.982  68.266  1.00  0.00     0.004 C 
BRANCH  29  30
ATOM     30  CD  LYS B   1       2.944  89.436  69.187  1.00  0.00     0.027 C 
BRANCH  30  31
ATOM     31  CE  LYS B   1       2.353  88.336  70.080  1.00  0.00     0.229 C 
BRANCH  31  32
ATOM     32  NZ  LYS B   1       3.015  88.364  71.395  1.00  0.00    -0.079 N 
ATOM     33  HZ1 LYS B   1       3.477  87.467  71.588  1.00  0.00     0.274 HD
ATOM     34  HZ2 LYS B   1       3.752  89.076  71.428  1.00  0.00     0.274 HD
ATOM     35  HZ3 LYS B   1       2.293  88.563  72.073  1.00  0.00     0.274 HD
ENDBRANCH  31  32
ENDBRANCH  30  31
ENDBRANCH  29  30
ENDBRANCH  28  29
ENDBRANCH  27  28
BRANCH  27  36
ATOM     36  N   LYS B   1       1.508  90.763  65.479  1.00  0.00     0.312 N 
ATOM     37  H   LYS B   1       1.875  90.664  64.482  1.00  0.00     0.359 HD
ENDBRANCH  27  36
ENDBRANCH  24  27
ENDBRANCH  22  23
BRANCH  22  38
ATOM     38  CB  ASN B   2       5.869  88.668  66.153  1.00  0.00     0.137 C 
BRANCH  38  39
ATOM     39  CG  ASN B   2       7.392  88.594  66.308  1.00  0.00     0.217 C 
ATOM     40  OD1 ASN B   2       7.965  89.001  67.308  1.00  0.00    -0.274 OA
ATOM     41  ND2 ASN B   2       8.103  88.103  65.328  1.00  0.00    -0.370 N 
ATOM     42 2HD2 ASN B   2       7.603  87.856  64.475  1.00  0.00     0.159 HD
ATOM     43 1HD2 ASN B   2       9.107  88.239  65.468  1.00  0.00     0.159 HD
ENDBRANCH  38  39
ENDBRANCH  22  38
ENDBRANCH  19  22
ENDBRANCH   6  18
ENDBRANCH   3   6
ENDBRANCH   1   2
BRANCH   1  44
ATOM     44  CB  GLU B   4       3.593  90.587  58.833  1.00  0.00     0.045 C 
BRANCH  44  45
ATOM     45  CG  GLU B   4       2.524  89.681  58.245  1.00  0.00     0.116 C 
BRANCH  45  46
ATOM     46  CD  GLU B   4       1.167  89.878  58.894  1.00  0.00     0.172 C 
ATOM     47  OE2 GLU B   4       0.317  90.567  58.294  1.00  0.00    -0.648 OA
ATOM     48  OE1 GLU B   4       0.956  89.342  60.002  1.00  0.00    -0.648 OA
ENDBRANCH  45  46
ENDBRANCH  44  45
ENDBRANCH   1  44
BRANCH   1  49
ATOM     49  C   GLU B   4       5.820  90.789  59.947  1.00  0.00     0.241 C 
ATOM     50  O   GLU B   4       6.931  90.370  60.273  1.00  0.00    -0.271 OA
ATOM     51  N   THR B   5       5.514  92.083  59.916  1.00  7.70    -0.344 N 
ATOM     52  H   THR B   5       4.609  92.351  59.649  1.00  0.23     0.163 HD
BRANCH  51  53
ATOM     53  CA  THR B   5       6.484  93.115  60.269  1.00  7.88     0.205 C 
BRANCH  53  54
ATOM     54  CB  THR B   5       5.905  94.504  59.996  1.00  4.05     0.146 C 
ATOM     55  CG2 THR B   5       5.448  94.691  58.565  1.00  3.72     0.042 C 
BRANCH  54  56
ATOM     56  OG1 THR B   5       4.793  94.757  60.837  1.00  7.31    -0.393 OA
ATOM     57  HG1 THR B   5       5.063  94.683  61.754  1.00  0.23     0.210 HD
ENDBRANCH  54  56
ENDBRANCH  53  54
BRANCH  53  58
ATOM     58  C   THR B   5       6.884  92.997  61.736  1.00  7.05     0.243 C 
ATOM     59  O   THR B   5       6.031  92.859  62.612  1.00  6.06    -0.271 OA
ATOM     60  N   TRP B   6       8.186  93.051  61.997  1.00  0.00    -0.346 N 
ATOM     61  H   TRP B   6       8.819  93.161  61.256  1.00  0.23     0.163 HD
BRANCH  60  62
ATOM     62  CA  TRP B   6       8.697  92.946  63.357  1.00  0.00     0.181 C 
BRANCH  62  63
ATOM     63  CB  TRP B   6       8.933  91.479  63.721  1.00  0.00     0.075 C 
BRANCH  63  64
ATOM     64  CG  TRP B   6       9.689  91.310  65.003  1.00  0.00    -0.028 A 
ATOM     65  CD2 TRP B   6      11.030  90.826  65.149  1.00  0.00    -0.002 A 
ATOM     66  CE2 TRP B   6      11.331  90.842  66.524  1.00  0.00     0.042 A 
ATOM     67  CE3 TRP B   6      12.004  90.382  64.250  1.00  0.00     0.014 A 
ATOM     68  CZ2 TRP B   6      12.565  90.430  67.019  1.00  0.00     0.030 A 
ATOM     69  NE1 TRP B   6      10.225  91.312  67.183  1.00  0.00    -0.365 N 
ATOM     70  CH2 TRP B   6      13.501  89.999  66.118  1.00  0.00     0.002 A 
ATOM     71  CZ3 TRP B   6      13.229  89.973  64.745  1.00  0.00     0.001 A 
ATOM     72  HE1 TRP B   6      10.146  91.431  68.153  1.00  0.23     0.165 HD
ATOM     73  CD1 TRP B   6       9.244  91.591  66.262  1.00  0.00     0.096 A 
ENDBRANCH  63  64
ENDBRANCH  62  63
BRANCH  62  74
ATOM     74  C   TRP B   6       9.988  93.742  63.518  1.00  0.00     0.241 C 
ATOM     75  N   VAL B   7      11.014  93.349  62.768  1.00  6.11    -0.344 N 
ATOM     76  H   VAL B   7      10.898  92.588  62.163  1.00  0.23     0.163 HD
ATOM     77  O   TRP B   6      10.053  94.687  64.305  1.00  0.00    -0.271 OA
BRANCH  75  78
ATOM     78  CA  VAL B   7      12.306  94.021  62.826  1.00  5.65     0.189 C 
BRANCH  78  79
ATOM     79  CB  VAL B   7      12.141  95.552  62.762  1.00  1.15     0.010 C 
ATOM     80  CG1 VAL B   7      13.456  96.244  63.092  1.00  4.96     0.012 C 
ATOM     81  CG2 VAL B   7      11.634  95.981  61.394  1.00  9.83     0.012 C 
ENDBRANCH  78  79
BRANCH  78  82
ATOM     82  C   VAL B   7      13.061  93.653  64.101  1.00  4.44     0.197 C 
ATOM     83  O   VAL B   7      14.187  93.127  63.987  1.00  0.00    -0.646 OA
ATOM     84  OXT VAL B   7      12.520  93.894  65.199  1.00  0.00    -0.646 OA
ENDBRANCH  78  82
ENDBRANCH  75  78
ENDBRANCH  62  74
ENDBRANCH  60  62
ENDBRANCH  53  58
ENDBRANCH  51  53
ENDBRANCH   1  49
TORSDOF 31
ENDMDL
