MODEL 1
REMARK VINA RESULT:      -6.6      0.000      0.000
REMARK  31 active torsions:
REMARK  status: ('A' for Active; 'I' for Inactive)
REMARK    1  A    between atoms: N_1  and  CA_2 
REMARK    2  A    between atoms: CA_2  and  CB_5 
REMARK    3  A    between atoms: CA_2  and  C_3 
REMARK       I    between atoms: C_3  and  N_14 
REMARK    4  A    between atoms: CB_5  and  CG_6 
REMARK    5  A    between atoms: CG_6  and  CD_7 
REMARK    6  A    between atoms: CD_7  and  CE_8 
REMARK    7  A    between atoms: CE_8  and  NZ_9 
REMARK    8  A    between atoms: N_14  and  CA_15 
REMARK    9  A    between atoms: CA_15  and  C_16 
REMARK   10  A    between atoms: CA_15  and  CB_18 
REMARK       I    between atoms: C_16  and  N_36 
REMARK   11  A    between atoms: CB_18  and  OG1_20 
REMARK   12  A    between atoms: CA_23  and  CB_25 
REMARK   13  A    between atoms: CA_23  and  C_24 
REMARK   14  A    between atoms: CA_23  and  N_36 
REMARK       I    between atoms: C_24  and  N_45 
REMARK   15  A    between atoms: CB_25  and  CG_26 
REMARK   16  A    between atoms: CA_39  and  N_45 
REMARK   17  A    between atoms: CA_39  and  CB_41 
REMARK   18  A    between atoms: CA_39  and  C_40 
REMARK       I    between atoms: C_40  and  N_55 
REMARK   19  A    between atoms: CB_41  and  CG_42 
REMARK   20  A    between atoms: CG_42  and  CD_43 
REMARK   21  A    between atoms: CA_49  and  N_55 
REMARK   22  A    between atoms: CA_49  and  CB_51 
REMARK   23  A    between atoms: CA_49  and  C_50 
REMARK       I    between atoms: C_50  and  N_71 
REMARK   24  A    between atoms: CB_51  and  OG1_57 
REMARK   25  A    between atoms: CA_58  and  CB_60 
REMARK   26  A    between atoms: CA_58  and  N_71 
REMARK   27  A    between atoms: CA_58  and  C_59 
REMARK       I    between atoms: C_59  and  N_80 
REMARK   28  A    between atoms: CB_60  and  CG_61 
REMARK   29  A    between atoms: CA_74  and  N_80 
REMARK   30  A    between atoms: CA_74  and  CB_76 
REMARK   31  A    between atoms: CA_74  and  C_75 
ROOT
ATOM      1  CA  GLU B   4       4.968  89.741  68.560  1.00  0.00     0.177 C 
ENDROOT
BRANCH   1   2
ATOM      2  N   GLU B   4       4.346  89.310  67.310  1.00  0.00    -0.346 N 
ATOM      3  C   TRP B   3       3.218  89.861  66.872  1.00  0.00     0.241 C 
ATOM      4  O   TRP B   3       2.633  90.754  67.484  1.00  0.00    -0.271 OA
ATOM      5  H   GLU B   4       4.772  88.602  66.783  1.00  0.23     0.163 HD
BRANCH   3   6
ATOM      6  CA  TRP B   3       2.666  89.330  65.553  1.00  0.00     0.181 C 
BRANCH   6   7
ATOM      7  CB  TRP B   3       1.441  88.441  65.816  1.00  0.00     0.075 C 
BRANCH   7   8
ATOM      8  CG  TRP B   3       1.664  86.988  65.514  1.00  0.00    -0.028 A 
ATOM      9  CD2 TRP B   3       1.493  86.336  64.250  1.00  0.00    -0.002 A 
ATOM     10  CE2 TRP B   3       1.822  84.979  64.431  1.00  0.00     0.042 A 
ATOM     11  CE3 TRP B   3       1.093  86.766  62.981  1.00  0.00     0.014 A 
ATOM     12  NE1 TRP B   3       2.179  84.813  65.744  1.00  0.00    -0.365 N 
ATOM     13  CZ2 TRP B   3       1.761  84.051  63.394  1.00  0.00     0.030 A 
ATOM     14  HE1 TRP B   3       2.456  83.970  66.159  1.00  0.23     0.165 HD
ATOM     15  CD1 TRP B   3       2.083  86.025  66.387  1.00  0.00     0.096 A 
ATOM     16  CH2 TRP B   3       1.365  84.501  62.165  1.00  0.00     0.002 A 
ATOM     17  CZ3 TRP B   3       1.033  85.844  61.953  1.00  0.00     0.001 A 
ENDBRANCH   7   8
ENDBRANCH   6   7
BRANCH   6  18
ATOM     18  N   TRP B   3       3.691  88.602  64.809  1.00  0.00    -0.346 N 
ATOM     19  C   THR B   2       4.001  88.914  63.542  1.00  0.00     0.243 C 
ATOM     20  O   THR B   2       3.454  89.835  62.941  1.00  0.00    -0.271 OA
ATOM     21  H   TRP B   3       4.166  87.865  65.247  1.00  0.23     0.163 HD
BRANCH  19  22
ATOM     22  CA  THR B   2       5.095  88.091  62.906  1.00  0.00     0.205 C 
BRANCH  22  23
ATOM     23  N   THR B   2       4.816  87.850  61.494  1.00  0.00    -0.343 N 
ATOM     24  H   THR B   2       4.794  88.611  60.873  1.00  0.00     0.163 HD
ATOM     25  C   LYS B   1       4.591  86.619  61.026  1.00  0.00     0.254 C 
ATOM     26  O   LYS B   1       4.657  85.619  61.750  1.00  0.00    -0.271 OA
BRANCH  25  27
ATOM     27  CA  LYS B   1       4.296  86.509  59.548  1.00  0.00     0.350 C 
BRANCH  27  28
ATOM     28  CB  LYS B   1       5.594  86.225  58.744  1.00  0.00     0.048 C 
BRANCH  28  29
ATOM     29  CG  LYS B   1       6.884  86.654  59.485  1.00  0.00     0.004 C 
BRANCH  29  30
ATOM     30  CD  LYS B   1       7.694  87.751  58.787  1.00  0.00     0.027 C 
BRANCH  30  31
ATOM     31  CE  LYS B   1       6.743  88.642  57.976  1.00  0.00     0.229 C 
BRANCH  31  32
ATOM     32  NZ  LYS B   1       7.145  88.626  56.559  1.00  0.00    -0.079 N 
ATOM     33  HZ1 LYS B   1       6.750  89.432  56.061  1.00  0.00     0.274 HD
ATOM     34  HZ2 LYS B   1       8.163  88.699  56.458  1.00  0.00     0.274 HD
ATOM     35  HZ3 LYS B   1       6.808  87.753  56.178  1.00  0.00     0.274 HD
ENDBRANCH  31  32
ENDBRANCH  30  31
ENDBRANCH  29  30
ENDBRANCH  28  29
ENDBRANCH  27  28
BRANCH  27  36
ATOM     36  N   LYS B   1       3.671  87.730  59.048  1.00  0.00     0.312 N 
ATOM     37  H   LYS B   1       4.339  88.225  58.378  1.00  0.00     0.359 HD
ENDBRANCH  27  36
ENDBRANCH  25  27
ENDBRANCH  22  23
BRANCH  22  38
ATOM     38  CB  THR B   2       6.486  88.788  63.082  1.00  0.00     0.146 C 
ATOM     39  CG2 THR B   2       6.991  89.621  61.884  1.00  0.00     0.042 C 
BRANCH  38  40
ATOM     40  OG1 THR B   2       6.448  89.710  64.165  1.00  0.00    -0.393 OA
ATOM     41  HG1 THR B   2       7.274  89.592  64.644  1.00  0.00     0.210 HD
ENDBRANCH  38  40
ENDBRANCH  22  38
ENDBRANCH  19  22
ENDBRANCH   6  18
ENDBRANCH   3   6
ENDBRANCH   1   2
BRANCH   1  42
ATOM     42  CB  GLU B   4       4.940  88.611  69.590  1.00  0.00     0.045 C 
BRANCH  42  43
ATOM     43  CG  GLU B   4       4.286  87.340  69.076  1.00  0.00     0.116 C 
BRANCH  43  44
ATOM     44  CD  GLU B   4       5.232  86.154  69.070  1.00  0.00     0.172 C 
ATOM     45  OE2 GLU B   4       4.789  85.040  69.422  1.00  0.00    -0.648 OA
ATOM     46  OE1 GLU B   4       6.414  86.340  68.714  1.00  0.00    -0.648 OA
ENDBRANCH  43  44
ENDBRANCH  42  43
ENDBRANCH   1  42
BRANCH   1  47
ATOM     47  C   GLU B   4       6.408  90.188  68.325  1.00  0.00     0.241 C 
ATOM     48  O   GLU B   4       6.692  91.384  68.253  1.00  0.00    -0.271 OA
ATOM     49  N   THR B   5       7.310  89.219  68.202  1.00  7.70    -0.344 N 
ATOM     50  H   THR B   5       7.017  88.286  68.267  1.00  0.23     0.163 HD
BRANCH  49  51
ATOM     51  CA  THR B   5       8.723  89.505  67.971  1.00  7.88     0.205 C 
BRANCH  51  52
ATOM     52  CB  THR B   5       9.550  88.224  68.095  1.00  4.05     0.146 C 
ATOM     53  CG2 THR B   5       9.811  87.818  69.529  1.00  3.72     0.042 C 
BRANCH  52  54
ATOM     54  OG1 THR B   5       8.897  87.142  67.455  1.00  7.31    -0.393 OA
ATOM     55  HG1 THR B   5       9.243  87.040  66.566  1.00  0.23     0.210 HD
ENDBRANCH  52  54
ENDBRANCH  51  52
BRANCH  51  56
ATOM     56  C   THR B   5       8.927  90.124  66.592  1.00  7.05     0.243 C 
ATOM     57  O   THR B   5       9.092  89.414  65.601  1.00  6.06    -0.271 OA
ATOM     58  N   TRP B   6       8.912  91.452  66.536  1.00  0.00    -0.346 N 
ATOM     59  H   TRP B   6       8.775  91.964  67.360  1.00  0.23     0.163 HD
BRANCH  58  60
ATOM     60  CA  TRP B   6       9.092  92.165  65.278  1.00  0.00     0.181 C 
BRANCH  60  61
ATOM     61  CB  TRP B   6       8.159  93.375  65.219  1.00  0.00     0.075 C 
BRANCH  61  62
ATOM     62  CG  TRP B   6       6.861  93.079  64.531  1.00  0.00    -0.028 A 
ATOM     63  CD2 TRP B   6       6.615  93.101  63.120  1.00  0.00    -0.002 A 
ATOM     64  CE2 TRP B   6       5.265  92.754  62.927  1.00  0.00     0.042 A 
ATOM     65  CE3 TRP B   6       7.405  93.382  62.002  1.00  0.00     0.014 A 
ATOM     66  CZ2 TRP B   6       4.690  92.679  61.662  1.00  0.00     0.030 A 
ATOM     67  NE1 TRP B   6       4.716  92.531  64.164  1.00  0.00    -0.365 N 
ATOM     68  CH2 TRP B   6       5.485  92.959  60.584  1.00  0.00     0.002 A 
ATOM     69  CZ3 TRP B   6       6.832  93.307  60.746  1.00  0.00     0.001 A 
ATOM     70  HE1 TRP B   6       3.786  92.272  64.337  1.00  0.23     0.165 HD
ATOM     71  CD1 TRP B   6       5.682  92.729  65.121  1.00  0.00     0.096 A 
ENDBRANCH  61  62
ENDBRANCH  60  61
BRANCH  60  72
ATOM     72  C   TRP B   6      10.541  92.609  65.105  1.00  0.00     0.241 C 
ATOM     73  N   VAL B   7      11.460  91.653  65.199  1.00  6.11    -0.344 N 
ATOM     74  H   VAL B   7      11.175  90.731  65.369  1.00  0.23     0.163 HD
ATOM     75  O   TRP B   6      10.818  93.790  64.896  1.00  0.00    -0.271 OA
BRANCH  73  76
ATOM     76  CA  VAL B   7      12.882  91.941  65.057  1.00  5.65     0.189 C 
BRANCH  76  77
ATOM     77  CB  VAL B   7      13.700  91.276  66.181  1.00  1.15     0.010 C 
ATOM     78  CG1 VAL B   7      13.749  92.174  67.409  1.00  4.96     0.012 C 
ATOM     79  CG2 VAL B   7      13.123  89.913  66.532  1.00  9.83     0.012 C 
ENDBRANCH  76  77
BRANCH  76  80
ATOM     80  C   VAL B   7      13.409  91.463  63.707  1.00  4.44     0.197 C 
ATOM     81  O   VAL B   7      14.398  92.050  63.220  1.00  0.00    -0.646 OA
ATOM     82  OXT VAL B   7      12.829  90.510  63.149  1.00  0.00    -0.646 OA
ENDBRANCH  76  80
ENDBRANCH  73  76
ENDBRANCH  60  72
ENDBRANCH  58  60
ENDBRANCH  51  56
ENDBRANCH  49  51
ENDBRANCH   1  47
TORSDOF 31
ENDMDL
MODEL 2
REMARK VINA RESULT:      -6.2      2.418      5.451
REMARK  31 active torsions:
REMARK  status: ('A' for Active; 'I' for Inactive)
REMARK    1  A    between atoms: N_1  and  CA_2 
REMARK    2  A    between atoms: CA_2  and  CB_5 
REMARK    3  A    between atoms: CA_2  and  C_3 
REMARK       I    between atoms: C_3  and  N_14 
REMARK    4  A    between atoms: CB_5  and  CG_6 
REMARK    5  A    between atoms: CG_6  and  CD_7 
REMARK    6  A    between atoms: CD_7  and  CE_8 
REMARK    7  A    between atoms: CE_8  and  NZ_9 
REMARK    8  A    between atoms: N_14  and  CA_15 
REMARK    9  A    between atoms: CA_15  and  C_16 
REMARK   10  A    between atoms: CA_15  and  CB_18 
REMARK       I    between atoms: C_16  and  N_36 
REMARK   11  A    between atoms: CB_18  and  OG1_20 
REMARK   12  A    between atoms: CA_23  and  CB_25 
REMARK   13  A    between atoms: CA_23  and  C_24 
REMARK   14  A    between atoms: CA_23  and  N_36 
REMARK       I    between atoms: C_24  and  N_45 
REMARK   15  A    between atoms: CB_25  and  CG_26 
REMARK   16  A    between atoms: CA_39  and  N_45 
REMARK   17  A    between atoms: CA_39  and  CB_41 
REMARK   18  A    between atoms: CA_39  and  C_40 
REMARK       I    between atoms: C_40  and  N_55 
REMARK   19  A    between atoms: CB_41  and  CG_42 
REMARK   20  A    between atoms: CG_42  and  CD_43 
REMARK   21  A    between atoms: CA_49  and  N_55 
REMARK   22  A    between atoms: CA_49  and  CB_51 
REMARK   23  A    between atoms: CA_49  and  C_50 
REMARK       I    between atoms: C_50  and  N_71 
REMARK   24  A    between atoms: CB_51  and  OG1_57 
REMARK   25  A    between atoms: CA_58  and  CB_60 
REMARK   26  A    between atoms: CA_58  and  N_71 
REMARK   27  A    between atoms: CA_58  and  C_59 
REMARK       I    between atoms: C_59  and  N_80 
REMARK   28  A    between atoms: CB_60  and  CG_61 
REMARK   29  A    between atoms: CA_74  and  N_80 
REMARK   30  A    between atoms: CA_74  and  CB_76 
REMARK   31  A    between atoms: CA_74  and  C_75 
ROOT
ATOM      1  CA  GLU B   4       4.034  90.842  64.361  1.00  0.00     0.177 C 
ENDROOT
BRANCH   1   2
ATOM      2  N   GLU B   4       3.082  90.105  63.532  1.00  0.00    -0.346 N 
ATOM      3  C   TRP B   3       2.915  88.793  63.671  1.00  0.00     0.241 C 
ATOM      4  O   TRP B   3       3.542  88.126  64.493  1.00  0.00    -0.271 OA
ATOM      5  H   GLU B   4       2.556  90.589  62.862  1.00  0.23     0.163 HD
BRANCH   3   6
ATOM      6  CA  TRP B   3       1.891  88.134  62.751  1.00  0.00     0.181 C 
BRANCH   6   7
ATOM      7  CB  TRP B   3       1.465  86.776  63.327  1.00  0.00     0.075 C 
BRANCH   7   8
ATOM      8  CG  TRP B   3       2.380  85.644  62.962  1.00  0.00    -0.028 A 
ATOM      9  CD2 TRP B   3       2.482  84.374  63.619  1.00  0.00    -0.002 A 
ATOM     10  CE2 TRP B   3       3.458  83.626  62.934  1.00  0.00     0.042 A 
ATOM     11  CE3 TRP B   3       1.845  83.797  64.722  1.00  0.00     0.014 A 
ATOM     12  NE1 TRP B   3       3.926  84.402  61.906  1.00  0.00    -0.365 N 
ATOM     13  CZ2 TRP B   3       3.812  82.334  63.315  1.00  0.00     0.030 A 
ATOM     14  HE1 TRP B   3       4.615  84.141  61.260  1.00  0.23     0.165 HD
ATOM     15  CD1 TRP B   3       3.272  85.612  61.929  1.00  0.00     0.096 A 
ATOM     16  CH2 TRP B   3       3.172  81.796  64.398  1.00  0.00     0.002 A 
ATOM     17  CZ3 TRP B   3       2.196  82.515  65.099  1.00  0.00     0.001 A 
ENDBRANCH   7   8
ENDBRANCH   6   7
BRANCH   6  18
ATOM     18  N   TRP B   3       2.419  87.988  61.397  1.00  0.00    -0.346 N 
ATOM     19  C   THR B   2       1.882  88.636  60.353  1.00  0.00     0.243 C 
ATOM     20  O   THR B   2       0.927  89.400  60.478  1.00  0.00    -0.271 OA
ATOM     21  H   TRP B   3       3.188  87.398  61.245  1.00  0.23     0.163 HD
BRANCH  19  22
ATOM     22  CA  THR B   2       2.544  88.404  59.017  1.00  0.00     0.205 C 
BRANCH  22  23
ATOM     23  N   THR B   2       3.965  88.115  59.180  1.00  0.00    -0.343 N 
ATOM     24  H   THR B   2       4.238  87.261  59.581  1.00  0.00     0.163 HD
ATOM     25  C   LYS B   1       4.904  88.985  58.796  1.00  0.00     0.254 C 
ATOM     26  O   LYS B   1       4.622  90.051  58.238  1.00  0.00    -0.271 OA
BRANCH  25  27
ATOM     27  CA  LYS B   1       6.337  88.572  59.037  1.00  0.00     0.350 C 
BRANCH  27  28
ATOM     28  CB  LYS B   1       6.425  87.508  60.165  1.00  0.00     0.048 C 
BRANCH  28  29
ATOM     29  CG  LYS B   1       7.507  86.429  59.910  1.00  0.00     0.004 C 
BRANCH  29  30
ATOM     30  CD  LYS B   1       6.972  85.087  59.403  1.00  0.00     0.027 C 
BRANCH  30  31
ATOM     31  CE  LYS B   1       7.252  84.967  57.898  1.00  0.00     0.229 C 
BRANCH  31  32
ATOM     32  NZ  LYS B   1       6.058  85.383  57.143  1.00  0.00    -0.079 N 
ATOM     33  HZ1 LYS B   1       6.147  86.358  56.831  1.00  0.00     0.274 HD
ATOM     34  HZ2 LYS B   1       5.938  84.822  56.294  1.00  0.00     0.274 HD
ATOM     35  HZ3 LYS B   1       5.271  85.264  57.767  1.00  0.00     0.274 HD
ENDBRANCH  31  32
ENDBRANCH  30  31
ENDBRANCH  29  30
ENDBRANCH  28  29
ENDBRANCH  27  28
BRANCH  27  36
ATOM     36  N   LYS B   1       7.161  89.725  59.389  1.00  0.00     0.312 N 
ATOM     37  H   LYS B   1       7.635  90.107  58.513  1.00  0.00     0.359 HD
ENDBRANCH  27  36
ENDBRANCH  25  27
ENDBRANCH  22  23
BRANCH  22  38
ATOM     38  CB  THR B   2       1.832  87.246  58.241  1.00  0.00     0.146 C 
ATOM     39  CG2 THR B   2       2.531  85.870  58.270  1.00  0.00     0.042 C 
BRANCH  38  40
ATOM     40  OG1 THR B   2       0.541  87.000  58.785  1.00  0.00    -0.393 OA
ATOM     41  HG1 THR B   2      -0.065  87.567  58.299  1.00  0.00     0.210 HD
ENDBRANCH  38  40
ENDBRANCH  22  38
ENDBRANCH  19  22
ENDBRANCH   6  18
ENDBRANCH   3   6
ENDBRANCH   1   2
BRANCH   1  42
ATOM     42  CB  GLU B   4       4.057  90.278  65.782  1.00  0.00     0.045 C 
BRANCH  42  43
ATOM     43  CG  GLU B   4       3.337  91.157  66.792  1.00  0.00     0.116 C 
BRANCH  43  44
ATOM     44  CD  GLU B   4       2.198  90.438  67.488  1.00  0.00     0.172 C 
ATOM     45  OE2 GLU B   4       1.986  89.242  67.199  1.00  0.00    -0.648 OA
ATOM     46  OE1 GLU B   4       1.518  91.072  68.322  1.00  0.00    -0.648 OA
ENDBRANCH  43  44
ENDBRANCH  42  43
ENDBRANCH   1  42
BRANCH   1  47
ATOM     47  C   GLU B   4       5.436  90.783  63.761  1.00  0.00     0.241 C 
ATOM     48  O   GLU B   4       6.205  89.864  64.044  1.00  0.00    -0.271 OA
ATOM     49  N   THR B   5       5.762  91.773  62.935  1.00  7.70    -0.344 N 
ATOM     50  H   THR B   5       5.104  92.476  62.753  1.00  0.23     0.163 HD
BRANCH  49  51
ATOM     51  CA  THR B   5       7.072  91.844  62.294  1.00  7.88     0.205 C 
BRANCH  51  52
ATOM     52  CB  THR B   5       7.059  92.888  61.176  1.00  4.05     0.146 C 
ATOM     53  CG2 THR B   5       5.873  93.824  61.246  1.00  3.72     0.042 C 
BRANCH  52  54
ATOM     54  OG1 THR B   5       8.233  93.679  61.217  1.00  7.31    -0.393 OA
ATOM     55  HG1 THR B   5       8.576  93.790  60.328  1.00  0.23     0.210 HD
ENDBRANCH  52  54
ENDBRANCH  51  52
BRANCH  51  56
ATOM     56  C   THR B   5       8.152  92.188  63.315  1.00  7.05     0.243 C 
ATOM     57  O   THR B   5       7.969  93.071  64.152  1.00  6.06    -0.271 OA
ATOM     58  N   TRP B   6       9.276  91.483  63.242  1.00  0.00    -0.346 N 
ATOM     59  H   TRP B   6       9.363  90.791  62.554  1.00  0.23     0.163 HD
BRANCH  58  60
ATOM     60  CA  TRP B   6      10.382  91.713  64.163  1.00  0.00     0.181 C 
BRANCH  60  61
ATOM     61  CB  TRP B   6      10.444  93.190  64.555  1.00  0.00     0.075 C 
BRANCH  61  62
ATOM     62  CG  TRP B   6      11.375  93.984  63.691  1.00  0.00    -0.028 A 
ATOM     63  CD2 TRP B   6      12.787  93.790  63.548  1.00  0.00    -0.002 A 
ATOM     64  CE2 TRP B   6      13.250  94.755  62.633  1.00  0.00     0.042 A 
ATOM     65  CE3 TRP B   6      13.704  92.895  64.105  1.00  0.00     0.014 A 
ATOM     66  CZ2 TRP B   6      14.589  94.847  62.264  1.00  0.00     0.030 A 
ATOM     67  NE1 TRP B   6      12.169  95.501  62.239  1.00  0.00    -0.365 N 
ATOM     68  CH2 TRP B   6      15.466  93.959  62.825  1.00  0.00     0.002 A 
ATOM     69  CZ3 TRP B   6      15.034  92.988  63.737  1.00  0.00     0.001 A 
ATOM     70  HE1 TRP B   6      12.193  96.247  61.604  1.00  0.23     0.165 HD
ATOM     71  CD1 TRP B   6      11.048  95.031  62.879  1.00  0.00     0.096 A 
ENDBRANCH  61  62
ENDBRANCH  60  61
BRANCH  60  72
ATOM     72  C   TRP B   6      10.243  90.843  65.409  1.00  0.00     0.241 C 
ATOM     73  N   VAL B   7       9.041  90.319  65.625  1.00  6.11    -0.344 N 
ATOM     74  H   VAL B   7       8.317  90.508  64.993  1.00  0.23     0.163 HD
ATOM     75  O   TRP B   6      11.203  90.656  66.157  1.00  0.00    -0.271 OA
BRANCH  73  76
ATOM     76  CA  VAL B   7       8.771  89.473  66.780  1.00  5.65     0.189 C 
BRANCH  76  77
ATOM     77  CB  VAL B   7       7.938  90.222  67.839  1.00  1.15     0.010 C 
ATOM     78  CG1 VAL B   7       8.807  90.608  69.027  1.00  4.96     0.012 C 
ATOM     79  CG2 VAL B   7       7.278  91.451  67.232  1.00  9.83     0.012 C 
ENDBRANCH  76  77
BRANCH  76  80
ATOM     80  C   VAL B   7       8.031  88.202  66.372  1.00  4.44     0.197 C 
ATOM     81  O   VAL B   7       6.893  88.006  66.845  1.00  0.00    -0.646 OA
ATOM     82  OXT VAL B   7       8.596  87.416  65.585  1.00  0.00    -0.646 OA
ENDBRANCH  76  80
ENDBRANCH  73  76
ENDBRANCH  60  72
ENDBRANCH  58  60
ENDBRANCH  51  56
ENDBRANCH  49  51
ENDBRANCH   1  47
TORSDOF 31
ENDMDL
MODEL 3
REMARK VINA RESULT:      -5.9      2.212      5.995
REMARK  31 active torsions:
REMARK  status: ('A' for Active; 'I' for Inactive)
REMARK    1  A    between atoms: N_1  and  CA_2 
REMARK    2  A    between atoms: CA_2  and  CB_5 
REMARK    3  A    between atoms: CA_2  and  C_3 
REMARK       I    between atoms: C_3  and  N_14 
REMARK    4  A    between atoms: CB_5  and  CG_6 
REMARK    5  A    between atoms: CG_6  and  CD_7 
REMARK    6  A    between atoms: CD_7  and  CE_8 
REMARK    7  A    between atoms: CE_8  and  NZ_9 
REMARK    8  A    between atoms: N_14  and  CA_15 
REMARK    9  A    between atoms: CA_15  and  C_16 
REMARK   10  A    between atoms: CA_15  and  CB_18 
REMARK       I    between atoms: C_16  and  N_36 
REMARK   11  A    between atoms: CB_18  and  OG1_20 
REMARK   12  A    between atoms: CA_23  and  CB_25 
REMARK   13  A    between atoms: CA_23  and  C_24 
REMARK   14  A    between atoms: CA_23  and  N_36 
REMARK       I    between atoms: C_24  and  N_45 
REMARK   15  A    between atoms: CB_25  and  CG_26 
REMARK   16  A    between atoms: CA_39  and  N_45 
REMARK   17  A    between atoms: CA_39  and  CB_41 
REMARK   18  A    between atoms: CA_39  and  C_40 
REMARK       I    between atoms: C_40  and  N_55 
REMARK   19  A    between atoms: CB_41  and  CG_42 
REMARK   20  A    between atoms: CG_42  and  CD_43 
REMARK   21  A    between atoms: CA_49  and  N_55 
REMARK   22  A    between atoms: CA_49  and  CB_51 
REMARK   23  A    between atoms: CA_49  and  C_50 
REMARK       I    between atoms: C_50  and  N_71 
REMARK   24  A    between atoms: CB_51  and  OG1_57 
REMARK   25  A    between atoms: CA_58  and  CB_60 
REMARK   26  A    between atoms: CA_58  and  N_71 
REMARK   27  A    between atoms: CA_58  and  C_59 
REMARK       I    between atoms: C_59  and  N_80 
REMARK   28  A    between atoms: CB_60  and  CG_61 
REMARK   29  A    between atoms: CA_74  and  N_80 
REMARK   30  A    between atoms: CA_74  and  CB_76 
REMARK   31  A    between atoms: CA_74  and  C_75 
ROOT
ATOM      1  CA  GLU B   4       2.352  90.374  64.626  1.00  0.00     0.177 C 
ENDROOT
BRANCH   1   2
ATOM      2  N   GLU B   4       1.802  89.052  64.922  1.00  0.00    -0.346 N 
ATOM      3  C   TRP B   3       2.586  88.044  65.293  1.00  0.00     0.241 C 
ATOM      4  O   TRP B   3       3.805  88.157  65.408  1.00  0.00    -0.271 OA
ATOM      5  H   GLU B   4       0.836  88.908  64.846  1.00  0.23     0.163 HD
BRANCH   3   6
ATOM      6  CA  TRP B   3       1.897  86.713  65.577  1.00  0.00     0.181 C 
BRANCH   6   7
ATOM      7  CB  TRP B   3       2.338  86.175  66.946  1.00  0.00     0.075 C 
BRANCH   7   8
ATOM      8  CG  TRP B   3       2.092  87.122  68.083  1.00  0.00    -0.028 A 
ATOM      9  CD2 TRP B   3       3.075  87.694  68.955  1.00  0.00    -0.002 A 
ATOM     10  CE2 TRP B   3       2.394  88.527  69.865  1.00  0.00     0.042 A 
ATOM     11  CE3 TRP B   3       4.465  87.584  69.057  1.00  0.00     0.014 A 
ATOM     12  NE1 TRP B   3       1.060  88.466  69.559  1.00  0.00    -0.365 N 
ATOM     13  CZ2 TRP B   3       3.055  89.241  70.861  1.00  0.00     0.030 A 
ATOM     14  HE1 TRP B   3       0.344  88.944  70.027  1.00  0.23     0.165 HD
ATOM     15  CD1 TRP B   3       0.887  87.622  68.487  1.00  0.00     0.096 A 
ATOM     16  CH2 TRP B   3       4.415  89.111  70.937  1.00  0.00     0.002 A 
ATOM     17  CZ3 TRP B   3       5.120  88.293  70.046  1.00  0.00     0.001 A 
ENDBRANCH   7   8
ENDBRANCH   6   7
BRANCH   6  18
ATOM     18  N   TRP B   3       2.170  85.743  64.520  1.00  0.00    -0.346 N 
ATOM     19  C   THR B   2       1.188  85.202  63.785  1.00  0.00     0.243 C 
ATOM     20  O   THR B   2       0.006  85.500  63.948  1.00  0.00    -0.271 OA
ATOM     21  H   TRP B   3       3.098  85.480  64.341  1.00  0.23     0.163 HD
BRANCH  19  22
ATOM     22  CA  THR B   2       1.620  84.230  62.714  1.00  0.00     0.205 C 
BRANCH  22  23
ATOM     23  N   THR B   2       2.738  84.765  61.942  1.00  0.00    -0.343 N 
ATOM     24  H   THR B   2       3.654  84.639  62.275  1.00  0.00     0.163 HD
ATOM     25  C   LYS B   1       2.545  85.420  60.794  1.00  0.00     0.254 C 
ATOM     26  O   LYS B   1       1.421  85.562  60.300  1.00  0.00    -0.271 OA
BRANCH  25  27
ATOM     27  CA  LYS B   1       3.785  85.938  60.103  1.00  0.00     0.350 C 
BRANCH  27  28
ATOM     28  CB  LYS B   1       4.407  87.121  60.894  1.00  0.00     0.048 C 
BRANCH  28  29
ATOM     29  CG  LYS B   1       5.672  87.712  60.223  1.00  0.00     0.004 C 
BRANCH  29  30
ATOM     30  CD  LYS B   1       6.988  87.043  60.629  1.00  0.00     0.027 C 
BRANCH  30  31
ATOM     31  CE  LYS B   1       8.159  87.962  60.256  1.00  0.00     0.229 C 
BRANCH  31  32
ATOM     32  NZ  LYS B   1       7.683  89.354  60.175  1.00  0.00    -0.079 N 
ATOM     33  HZ1 LYS B   1       8.473  90.010  60.195  1.00  0.00     0.274 HD
ATOM     34  HZ2 LYS B   1       7.190  89.530  59.294  1.00  0.00     0.274 HD
ATOM     35  HZ3 LYS B   1       7.068  89.490  60.965  1.00  0.00     0.274 HD
ENDBRANCH  31  32
ENDBRANCH  30  31
ENDBRANCH  29  30
ENDBRANCH  28  29
ENDBRANCH  27  28
BRANCH  27  36
ATOM     36  N   LYS B   1       3.484  86.368  58.741  1.00  0.00     0.312 N 
ATOM     37  H   LYS B   1       3.484  87.434  58.694  1.00  0.00     0.359 HD
ENDBRANCH  27  36
ENDBRANCH  25  27
ENDBRANCH  22  23
BRANCH  22  38
ATOM     38  CB  THR B   2       1.996  82.846  63.342  1.00  0.00     0.146 C 
ATOM     39  CG2 THR B   2       3.497  82.485  63.355  1.00  0.00     0.042 C 
BRANCH  38  40
ATOM     40  OG1 THR B   2       1.606  82.796  64.709  1.00  0.00    -0.393 OA
ATOM     41  HG1 THR B   2       0.646  82.841  64.714  1.00  0.00     0.210 HD
ENDBRANCH  38  40
ENDBRANCH  22  38
ENDBRANCH  19  22
ENDBRANCH   6  18
ENDBRANCH   3   6
ENDBRANCH   1   2
BRANCH   1  42
ATOM     42  CB  GLU B   4       2.943  91.003  65.888  1.00  0.00     0.045 C 
BRANCH  42  43
ATOM     43  CG  GLU B   4       2.015  92.004  66.556  1.00  0.00     0.116 C 
BRANCH  43  44
ATOM     44  CD  GLU B   4       1.151  91.376  67.632  1.00  0.00     0.172 C 
ATOM     45  OE2 GLU B   4       0.227  90.613  67.281  1.00  0.00    -0.648 OA
ATOM     46  OE1 GLU B   4       1.399  91.647  68.825  1.00  0.00    -0.648 OA
ENDBRANCH  43  44
ENDBRANCH  42  43
ENDBRANCH   1  42
BRANCH   1  47
ATOM     47  C   GLU B   4       3.423  90.287  63.543  1.00  0.00     0.241 C 
ATOM     48  O   GLU B   4       3.148  89.873  62.417  1.00  0.00    -0.271 OA
ATOM     49  N   THR B   5       4.645  90.676  63.896  1.00  7.70    -0.344 N 
ATOM     50  H   THR B   5       4.797  90.994  64.810  1.00  0.23     0.163 HD
BRANCH  49  51
ATOM     51  CA  THR B   5       5.766  90.642  62.961  1.00  7.88     0.205 C 
BRANCH  51  52
ATOM     52  CB  THR B   5       5.822  91.940  62.153  1.00  4.05     0.146 C 
ATOM     53  CG2 THR B   5       5.741  93.182  63.012  1.00  3.72     0.042 C 
BRANCH  52  54
ATOM     54  OG1 THR B   5       7.024  92.013  61.407  1.00  7.31    -0.393 OA
ATOM     55  HG1 THR B   5       7.512  92.798  61.662  1.00  0.23     0.210 HD
ENDBRANCH  52  54
ENDBRANCH  51  52
BRANCH  51  56
ATOM     56  C   THR B   5       7.080  90.435  63.705  1.00  7.05     0.243 C 
ATOM     57  O   THR B   5       8.102  90.110  63.101  1.00  6.06    -0.271 OA
ATOM     58  N   TRP B   6       7.049  90.627  65.020  1.00  0.00    -0.346 N 
ATOM     59  H   TRP B   6       6.205  90.886  65.445  1.00  0.23     0.163 HD
BRANCH  58  60
ATOM     60  CA  TRP B   6       8.240  90.464  65.844  1.00  0.00     0.181 C 
BRANCH  60  61
ATOM     61  CB  TRP B   6       8.818  91.832  66.210  1.00  0.00     0.075 C 
BRANCH  61  62
ATOM     62  CG  TRP B   6       9.999  92.211  65.370  1.00  0.00    -0.028 A 
ATOM     63  CD2 TRP B   6      11.369  91.866  65.611  1.00  0.00    -0.002 A 
ATOM     64  CE2 TRP B   6      12.129  92.425  64.567  1.00  0.00     0.042 A 
ATOM     65  CE3 TRP B   6      12.024  91.141  66.610  1.00  0.00     0.014 A 
ATOM     66  CZ2 TRP B   6      13.512  92.279  64.494  1.00  0.00     0.030 A 
ATOM     67  NE1 TRP B   6      11.263  93.078  63.730  1.00  0.00    -0.365 N 
ATOM     68  CH2 TRP B   6      14.129  91.565  65.484  1.00  0.00     0.002 A 
ATOM     69  CZ3 TRP B   6      13.398  90.997  66.535  1.00  0.00     0.001 A 
ATOM     70  HE1 TRP B   6      11.513  93.562  62.915  1.00  0.23     0.165 HD
ATOM     71  CD1 TRP B   6       9.986  92.945  64.219  1.00  0.00     0.096 A 
ENDBRANCH  61  62
ENDBRANCH  60  61
BRANCH  60  72
ATOM     72  C   TRP B   6       7.924  89.671  67.108  1.00  0.00     0.241 C 
ATOM     73  N   VAL B   7       8.722  88.639  67.365  1.00  6.11    -0.344 N 
ATOM     74  H   VAL B   7       9.458  88.441  66.750  1.00  0.23     0.163 HD
ATOM     75  O   TRP B   6       6.977  89.985  67.830  1.00  0.00    -0.271 OA
BRANCH  73  76
ATOM     76  CA  VAL B   7       8.529  87.796  68.538  1.00  5.65     0.189 C 
BRANCH  76  77
ATOM     77  CB  VAL B   7       8.894  86.330  68.236  1.00  1.15     0.010 C 
ATOM     78  CG1 VAL B   7       7.894  85.385  68.888  1.00  4.96     0.012 C 
ATOM     79  CG2 VAL B   7       8.962  86.090  66.735  1.00  9.83     0.012 C 
ENDBRANCH  76  77
BRANCH  76  80
ATOM     80  C   VAL B   7       9.370  88.287  69.713  1.00  4.44     0.197 C 
ATOM     81  O   VAL B   7      10.546  87.880  69.807  1.00  0.00    -0.646 OA
ATOM     82  OXT VAL B   7       8.845  89.072  70.529  1.00  0.00    -0.646 OA
ENDBRANCH  76  80
ENDBRANCH  73  76
ENDBRANCH  60  72
ENDBRANCH  58  60
ENDBRANCH  51  56
ENDBRANCH  49  51
ENDBRANCH   1  47
TORSDOF 31
ENDMDL
MODEL 4
REMARK VINA RESULT:      -4.5      2.369      5.947
REMARK  31 active torsions:
REMARK  status: ('A' for Active; 'I' for Inactive)
REMARK    1  A    between atoms: N_1  and  CA_2 
REMARK    2  A    between atoms: CA_2  and  CB_5 
REMARK    3  A    between atoms: CA_2  and  C_3 
REMARK       I    between atoms: C_3  and  N_14 
REMARK    4  A    between atoms: CB_5  and  CG_6 
REMARK    5  A    between atoms: CG_6  and  CD_7 
REMARK    6  A    between atoms: CD_7  and  CE_8 
REMARK    7  A    between atoms: CE_8  and  NZ_9 
REMARK    8  A    between atoms: N_14  and  CA_15 
REMARK    9  A    between atoms: CA_15  and  C_16 
REMARK   10  A    between atoms: CA_15  and  CB_18 
REMARK       I    between atoms: C_16  and  N_36 
REMARK   11  A    between atoms: CB_18  and  OG1_20 
REMARK   12  A    between atoms: CA_23  and  CB_25 
REMARK   13  A    between atoms: CA_23  and  C_24 
REMARK   14  A    between atoms: CA_23  and  N_36 
REMARK       I    between atoms: C_24  and  N_45 
REMARK   15  A    between atoms: CB_25  and  CG_26 
REMARK   16  A    between atoms: CA_39  and  N_45 
REMARK   17  A    between atoms: CA_39  and  CB_41 
REMARK   18  A    between atoms: CA_39  and  C_40 
REMARK       I    between atoms: C_40  and  N_55 
REMARK   19  A    between atoms: CB_41  and  CG_42 
REMARK   20  A    between atoms: CG_42  and  CD_43 
REMARK   21  A    between atoms: CA_49  and  N_55 
REMARK   22  A    between atoms: CA_49  and  CB_51 
REMARK   23  A    between atoms: CA_49  and  C_50 
REMARK       I    between atoms: C_50  and  N_71 
REMARK   24  A    between atoms: CB_51  and  OG1_57 
REMARK   25  A    between atoms: CA_58  and  CB_60 
REMARK   26  A    between atoms: CA_58  and  N_71 
REMARK   27  A    between atoms: CA_58  and  C_59 
REMARK       I    between atoms: C_59  and  N_80 
REMARK   28  A    between atoms: CB_60  and  CG_61 
REMARK   29  A    between atoms: CA_74  and  N_80 
REMARK   30  A    between atoms: CA_74  and  CB_76 
REMARK   31  A    between atoms: CA_74  and  C_75 
ROOT
ATOM      1  CA  GLU B   4       2.629  90.641  64.591  1.00  0.00     0.177 C 
ENDROOT
BRANCH   1   2
ATOM      2  N   GLU B   4       2.059  89.308  64.776  1.00  0.00    -0.346 N 
ATOM      3  C   TRP B   3       2.821  88.270  65.109  1.00  0.00     0.241 C 
ATOM      4  O   TRP B   3       4.036  88.364  65.278  1.00  0.00    -0.271 OA
ATOM      5  H   GLU B   4       1.095  89.178  64.654  1.00  0.23     0.163 HD
BRANCH   3   6
ATOM      6  CA  TRP B   3       2.112  86.929  65.276  1.00  0.00     0.181 C 
BRANCH   6   7
ATOM      7  CB  TRP B   3       2.283  86.421  66.715  1.00  0.00     0.075 C 
BRANCH   7   8
ATOM      8  CG  TRP B   3       1.658  87.306  67.754  1.00  0.00    -0.028 A 
ATOM      9  CD2 TRP B   3       2.334  88.022  68.795  1.00  0.00    -0.002 A 
ATOM     10  CE2 TRP B   3       1.355  88.724  69.524  1.00  0.00     0.042 A 
ATOM     11  CE3 TRP B   3       3.672  88.137  69.183  1.00  0.00     0.014 A 
ATOM     12  NE1 TRP B   3       0.140  88.451  68.951  1.00  0.00    -0.365 N 
ATOM     13  CZ2 TRP B   3       1.672  89.527  70.617  1.00  0.00     0.030 A 
ATOM     14  HE1 TRP B   3      -0.724  88.802  69.250  1.00  0.23     0.165 HD
ATOM     15  CD1 TRP B   3       0.331  87.599  67.888  1.00  0.00     0.096 A 
ATOM     16  CH2 TRP B   3       2.989  89.619  70.974  1.00  0.00     0.002 A 
ATOM     17  CZ3 TRP B   3       3.985  88.934  70.268  1.00  0.00     0.001 A 
ENDBRANCH   7   8
ENDBRANCH   6   7
BRANCH   6  18
ATOM     18  N   TRP B   3       2.606  85.950  64.312  1.00  0.00    -0.346 N 
ATOM     19  C   THR B   2       1.791  85.348  63.434  1.00  0.00     0.243 C 
ATOM     20  O   THR B   2       0.588  85.595  63.380  1.00  0.00    -0.271 OA
ATOM     21  H   TRP B   3       3.560  85.725  64.306  1.00  0.23     0.163 HD
BRANCH  19  22
ATOM     22  CA  THR B   2       2.444  84.373  62.484  1.00  0.00     0.205 C 
BRANCH  22  23
ATOM     23  N   THR B   2       3.307  85.066  61.533  1.00  0.00    -0.343 N 
ATOM     24  H   THR B   2       4.241  85.250  61.779  1.00  0.00     0.163 HD
ATOM     25  C   LYS B   1       2.858  85.457  60.337  1.00  0.00     0.254 C 
ATOM     26  O   LYS B   1       1.710  85.208  59.954  1.00  0.00    -0.271 OA
BRANCH  25  27
ATOM     27  CA  LYS B   1       3.848  86.181  59.455  1.00  0.00     0.350 C 
BRANCH  27  28
ATOM     28  CB  LYS B   1       3.782  87.715  59.690  1.00  0.00     0.048 C 
BRANCH  28  29
ATOM     29  CG  LYS B   1       2.382  88.319  59.420  1.00  0.00     0.004 C 
BRANCH  29  30
ATOM     30  CD  LYS B   1       2.379  89.562  58.525  1.00  0.00     0.027 C 
BRANCH  30  31
ATOM     31  CE  LYS B   1       0.972  90.176  58.517  1.00  0.00     0.229 C 
BRANCH  31  32
ATOM     32  NZ  LYS B   1       0.324  89.934  59.817  1.00  0.00    -0.079 N 
ATOM     33  HZ1 LYS B   1      -0.687  89.796  59.699  1.00  0.00     0.274 HD
ATOM     34  HZ2 LYS B   1       0.678  89.078  60.258  1.00  0.00     0.274 HD
ATOM     35  HZ3 LYS B   1       0.524  90.742  60.389  1.00  0.00     0.274 HD
ENDBRANCH  31  32
ENDBRANCH  30  31
ENDBRANCH  29  30
ENDBRANCH  28  29
ENDBRANCH  27  28
BRANCH  27  36
ATOM     36  N   LYS B   1       3.600  85.893  58.045  1.00  0.00     0.312 N 
ATOM     37  H   LYS B   1       4.204  86.532  57.439  1.00  0.00     0.359 HD
ENDBRANCH  27  36
ENDBRANCH  25  27
ENDBRANCH  22  23
BRANCH  22  38
ATOM     38  CB  THR B   2       3.252  83.289  63.274  1.00  0.00     0.146 C 
ATOM     39  CG2 THR B   2       2.636  81.875  63.323  1.00  0.00     0.042 C 
BRANCH  38  40
ATOM     40  OG1 THR B   2       4.534  83.098  62.688  1.00  0.00    -0.393 OA
ATOM     41  HG1 THR B   2       4.561  82.182  62.397  1.00  0.00     0.210 HD
ENDBRANCH  38  40
ENDBRANCH  22  38
ENDBRANCH  19  22
ENDBRANCH   6  18
ENDBRANCH   3   6
ENDBRANCH   1   2
BRANCH   1  42
ATOM     42  CB  GLU B   4       3.332  91.106  65.868  1.00  0.00     0.045 C 
BRANCH  42  43
ATOM     43  CG  GLU B   4       2.470  90.978  67.113  1.00  0.00     0.116 C 
BRANCH  43  44
ATOM     44  CD  GLU B   4       1.095  91.594  66.940  1.00  0.00     0.172 C 
ATOM     45  OE2 GLU B   4       0.129  90.836  66.714  1.00  0.00    -0.648 OA
ATOM     46  OE1 GLU B   4       0.985  92.834  67.032  1.00  0.00    -0.648 OA
ENDBRANCH  43  44
ENDBRANCH  42  43
ENDBRANCH   1  42
BRANCH   1  47
ATOM     47  C   GLU B   4       3.615  90.654  63.427  1.00  0.00     0.241 C 
ATOM     48  O   GLU B   4       3.380  90.023  62.396  1.00  0.00    -0.271 OA
ATOM     49  N   THR B   5       4.719  91.374  63.602  1.00  7.70    -0.344 N 
ATOM     50  H   THR B   5       4.845  91.852  64.449  1.00  0.23     0.163 HD
BRANCH  49  51
ATOM     51  CA  THR B   5       5.748  91.472  62.572  1.00  7.88     0.205 C 
BRANCH  51  52
ATOM     52  CB  THR B   5       5.676  92.832  61.877  1.00  4.05     0.146 C 
ATOM     53  CG2 THR B   5       4.858  93.851  62.640  1.00  3.72     0.042 C 
BRANCH  52  54
ATOM     54  OG1 THR B   5       6.973  93.372  61.697  1.00  7.31    -0.393 OA
ATOM     55  HG1 THR B   5       6.950  94.037  61.006  1.00  0.23     0.210 HD
ENDBRANCH  52  54
ENDBRANCH  51  52
BRANCH  51  56
ATOM     56  C   THR B   5       7.134  91.269  63.176  1.00  7.05     0.243 C 
ATOM     57  O   THR B   5       7.976  90.578  62.604  1.00  6.06    -0.271 OA
ATOM     58  N   TRP B   6       7.366  91.878  64.334  1.00  0.00    -0.346 N 
ATOM     59  H   TRP B   6       6.656  92.417  64.742  1.00  0.23     0.163 HD
BRANCH  58  60
ATOM     60  CA  TRP B   6       8.651  91.767  65.012  1.00  0.00     0.181 C 
BRANCH  60  61
ATOM     61  CB  TRP B   6       9.179  93.156  65.373  1.00  0.00     0.075 C 
BRANCH  61  62
ATOM     62  CG  TRP B   6      10.449  93.503  64.658  1.00  0.00    -0.028 A 
ATOM     63  CD2 TRP B   6      11.594  92.659  64.487  1.00  0.00    -0.002 A 
ATOM     64  CE2 TRP B   6      12.544  93.390  63.749  1.00  0.00     0.042 A 
ATOM     65  CE3 TRP B   6      11.908  91.358  64.889  1.00  0.00     0.014 A 
ATOM     66  CZ2 TRP B   6      13.785  92.861  63.404  1.00  0.00     0.030 A 
ATOM     67  NE1 TRP B   6      12.001  94.620  63.483  1.00  0.00    -0.365 N 
ATOM     68  CH2 TRP B   6      14.067  91.585  63.810  1.00  0.00     0.002 A 
ATOM     69  CZ3 TRP B   6      13.142  90.835  64.545  1.00  0.00     0.001 A 
ATOM     70  HE1 TRP B   6      12.439  95.341  62.982  1.00  0.23     0.165 HD
ATOM     71  CD1 TRP B   6      10.743  94.679  64.032  1.00  0.00     0.096 A 
ENDBRANCH  61  62
ENDBRANCH  60  61
BRANCH  60  72
ATOM     72  C   TRP B   6       8.534  90.906  66.265  1.00  0.00     0.241 C 
ATOM     73  N   VAL B   7       8.945  89.647  66.150  1.00  6.11    -0.344 N 
ATOM     74  H   VAL B   7       9.296  89.336  65.290  1.00  0.23     0.163 HD
ATOM     75  O   TRP B   6       8.078  91.371  67.310  1.00  0.00    -0.271 OA
BRANCH  73  76
ATOM     76  CA  VAL B   7       8.885  88.716  67.270  1.00  5.65     0.189 C 
BRANCH  76  77
ATOM     77  CB  VAL B   7       9.869  89.122  68.385  1.00  1.15     0.010 C 
ATOM     78  CG1 VAL B   7      10.201  87.925  69.265  1.00  4.96     0.012 C 
ATOM     79  CG2 VAL B   7      11.134  89.724  67.793  1.00  9.83     0.012 C 
ENDBRANCH  76  77
BRANCH  76  80
ATOM     80  C   VAL B   7       7.475  88.643  67.851  1.00  4.44     0.197 C 
ATOM     81  O   VAL B   7       6.564  88.188  67.129  1.00  0.00    -0.646 OA
ATOM     82  OXT VAL B   7       7.296  89.042  69.019  1.00  0.00    -0.646 OA
ENDBRANCH  76  80
ENDBRANCH  73  76
ENDBRANCH  60  72
ENDBRANCH  58  60
ENDBRANCH  51  56
ENDBRANCH  49  51
ENDBRANCH   1  47
TORSDOF 31
ENDMDL
