MODEL 1
REMARK VINA RESULT:      -7.5      0.000      0.000
REMARK  26 active torsions:
REMARK  status: ('A' for Active; 'I' for Inactive)
REMARK    1  A    between atoms: N_1  and  CA_2 
REMARK    2  A    between atoms: CA_2  and  CB_5 
REMARK    3  A    between atoms: CA_2  and  C_3 
REMARK       I    between atoms: C_3  and  N_16 
REMARK    4  A    between atoms: CB_5  and  CG_6 
REMARK    5  A    between atoms: CA_13  and  C_14 
REMARK    6  A    between atoms: CA_13  and  N_16 
REMARK       I    between atoms: C_14  and  N_31 
REMARK    7  A    between atoms: CA_18  and  CB_20 
REMARK    8  A    between atoms: CA_18  and  N_31 
REMARK    9  A    between atoms: CA_18  and  C_19 
REMARK       I    between atoms: C_19  and  N_40 
REMARK   10  A    between atoms: CB_20  and  CG_21 
REMARK   11  A    between atoms: CA_34  and  N_40 
REMARK   12  A    between atoms: CA_34  and  CB_36 
REMARK   13  A    between atoms: CA_34  and  C_35 
REMARK       I    between atoms: C_35  and  N_50 
REMARK   14  A    between atoms: CB_36  and  CG_37 
REMARK   15  A    between atoms: CG_37  and  CD_38 
REMARK   16  A    between atoms: CA_44  and  N_50 
REMARK   17  A    between atoms: CA_44  and  CB_46 
REMARK   18  A    between atoms: CA_44  and  C_45 
REMARK       I    between atoms: C_45  and  N_66 
REMARK   19  A    between atoms: CB_46  and  OG1_52 
REMARK   20  A    between atoms: CA_53  and  CB_55 
REMARK   21  A    between atoms: CA_53  and  N_66 
REMARK   22  A    between atoms: CA_53  and  C_54 
REMARK       I    between atoms: C_54  and  N_75 
REMARK   23  A    between atoms: CB_55  and  CG_56 
REMARK   24  A    between atoms: CA_69  and  N_75 
REMARK   25  A    between atoms: CA_69  and  CB_71 
REMARK   26  A    between atoms: CA_69  and  C_70 
ROOT
ATOM      1  CA  GLU B   4       7.151  88.327  60.414  1.00  0.00     0.177 C 
ENDROOT
BRANCH   1   2
ATOM      2  N   GLU B   4       5.939  87.636  60.848  1.00  0.00    -0.346 N 
ATOM      3  C   TRP B   3       5.607  87.563  62.134  1.00  0.00     0.241 C 
ATOM      4  O   TRP B   3       6.290  88.064  63.026  1.00  0.00    -0.271 OA
ATOM      5  H   GLU B   4       5.359  87.219  60.177  1.00  0.23     0.163 HD
BRANCH   3   6
ATOM      6  CA  TRP B   3       4.317  86.818  62.464  1.00  0.00     0.181 C 
BRANCH   6   7
ATOM      7  CB  TRP B   3       3.633  86.355  61.170  1.00  0.00     0.075 C 
BRANCH   7   8
ATOM      8  CG  TRP B   3       2.573  85.313  61.378  1.00  0.00    -0.028 A 
ATOM      9  CD1 TRP B   3       1.272  85.376  60.970  1.00  0.00     0.096 A 
ATOM     10  NE1 TRP B   3       0.602  84.236  61.349  1.00  0.00    -0.365 N 
ATOM     11  CE2 TRP B   3       1.470  83.413  62.017  1.00  0.00     0.042 A 
ATOM     12  HE1 TRP B   3      -0.342  84.045  61.168  1.00  0.23     0.165 HD
ATOM     13  CZ2 TRP B   3       1.259  82.159  62.587  1.00  0.00     0.030 A 
ATOM     14  CD2 TRP B   3       2.720  84.059  62.056  1.00  0.00    -0.002 A 
ATOM     15  CH2 TRP B   3       2.323  81.557  63.201  1.00  0.00     0.002 A 
ATOM     16  CZ3 TRP B   3       3.578  82.175  63.258  1.00  0.00     0.001 A 
ATOM     17  CE3 TRP B   3       3.788  83.419  62.693  1.00  0.00     0.014 A 
ENDBRANCH   7   8
ENDBRANCH   6   7
BRANCH   6  18
ATOM     18  N   TRP B   3       3.421  87.648  63.264  1.00  0.00    -0.346 N 
ATOM     19  C   GLY B   2       2.947  88.804  62.807  1.00  0.00     0.236 C 
ATOM     20  O   GLY B   2       3.227  89.251  61.696  1.00  0.00    -0.272 OA
ATOM     21  H   TRP B   3       3.157  87.342  64.158  1.00  0.23     0.163 HD
BRANCH  19  22
ATOM     22  CA  GLY B   2       2.021  89.566  63.736  1.00  0.00     0.225 C 
BRANCH  22  23
ATOM     23  N   GLY B   2       2.437  89.487  65.125  1.00  0.00    -0.350 N 
ATOM     24  H   GLY B   2       2.272  88.669  65.637  1.00  0.23     0.163 HD
ATOM     25  C   PHE B   1       3.042  90.506  65.736  1.00  0.00     0.254 C 
ATOM     26  O   PHE B   1       3.284  91.575  65.139  1.00  0.00    -0.271 OA
BRANCH  25  27
ATOM     27  CA  PHE B   1       3.415  90.319  67.187  1.00  0.00     0.354 C 
BRANCH  27  28
ATOM     28  N   PHE B   1       2.284  90.616  68.061  1.00  0.00     0.312 N 
ATOM     29  H   PHE B   1       1.403  90.179  67.661  1.00  0.00     0.359 HD
ENDBRANCH  27  28
BRANCH  27  30
ATOM     30  CB  PHE B   1       3.886  88.849  67.401  1.00  0.00     0.086 C 
BRANCH  30  31
ATOM     31  CG  PHE B   1       4.918  88.615  68.515  1.00  0.00    -0.056 A 
ATOM     32  CD1 PHE B   1       5.091  87.328  69.038  1.00  0.00     0.007 A 
ATOM     33  CE1 PHE B   1       5.962  87.114  70.101  1.00  0.00     0.001 A 
ATOM     34  CZ  PHE B   1       6.678  88.182  70.637  1.00  0.00     0.000 A 
ATOM     35  CE2 PHE B   1       6.521  89.464  70.114  1.00  0.00     0.001 A 
ATOM     36  CD2 PHE B   1       5.640  89.681  69.057  1.00  0.00     0.007 A 
ENDBRANCH  30  31
ENDBRANCH  27  30
ENDBRANCH  25  27
ENDBRANCH  22  23
ENDBRANCH  19  22
ENDBRANCH   6  18
ENDBRANCH   3   6
ENDBRANCH   1   2
BRANCH   1  37
ATOM     37  CB  GLU B   4       7.523  87.914  58.989  1.00  0.00     0.045 C 
BRANCH  37  38
ATOM     38  CG  GLU B   4       6.443  87.102  58.294  1.00  0.00     0.116 C 
BRANCH  38  39
ATOM     39  CD  GLU B   4       6.822  85.642  58.129  1.00  0.00     0.172 C 
ATOM     40  OE1 GLU B   4       7.024  85.209  56.976  1.00  0.00    -0.648 OA
ATOM     41  OE2 GLU B   4       6.915  84.934  59.153  1.00  0.00    -0.648 OA
ENDBRANCH  38  39
ENDBRANCH  37  38
ENDBRANCH   1  37
BRANCH   1  42
ATOM     42  C   GLU B   4       6.967  89.840  60.480  1.00  0.00     0.241 C 
ATOM     43  O   GLU B   4       6.575  90.471  59.498  1.00  0.00    -0.271 OA
ATOM     44  N   THR B   5       7.257  90.415  61.643  1.00  7.70    -0.344 N 
ATOM     45  H   THR B   5       7.567  89.856  62.386  1.00  0.23     0.163 HD
BRANCH  44  46
ATOM     46  CA  THR B   5       7.130  91.856  61.845  1.00  7.88     0.205 C 
BRANCH  46  47
ATOM     47  CB  THR B   5       5.722  92.201  62.333  1.00  4.05     0.146 C 
ATOM     48  CG2 THR B   5       4.777  92.576  61.212  1.00  3.72     0.042 C 
BRANCH  47  49
ATOM     49  OG1 THR B   5       5.151  91.106  63.027  1.00  7.31    -0.393 OA
ATOM     50  HG1 THR B   5       4.940  90.407  62.405  1.00  0.23     0.210 HD
ENDBRANCH  47  49
ENDBRANCH  46  47
BRANCH  46  51
ATOM     51  C   THR B   5       8.165  92.351  62.851  1.00  7.05     0.243 C 
ATOM     52  N   TRP B   6       8.230  91.690  64.002  1.00  0.00    -0.346 N 
ATOM     53  H   TRP B   6       7.627  90.932  64.153  1.00  0.23     0.163 HD
ATOM     54  O   THR B   5       8.887  93.313  62.590  1.00  6.06    -0.271 OA
BRANCH  52  55
ATOM     55  CA  TRP B   6       9.173  92.067  65.046  1.00  0.00     0.181 C 
BRANCH  55  56
ATOM     56  CB  TRP B   6       8.646  91.633  66.415  1.00  0.00     0.075 C 
BRANCH  56  57
ATOM     57  CG  TRP B   6       8.309  90.175  66.476  1.00  0.00    -0.028 A 
ATOM     58  CD2 TRP B   6       8.898  89.195  67.338  1.00  0.00    -0.002 A 
ATOM     59  CE2 TRP B   6       8.274  87.964  67.058  1.00  0.00     0.042 A 
ATOM     60  CE3 TRP B   6       9.894  89.238  68.318  1.00  0.00     0.014 A 
ATOM     61  CZ2 TRP B   6       8.612  86.790  67.725  1.00  0.00     0.030 A 
ATOM     62  NE1 TRP B   6       7.348  88.187  66.072  1.00  0.00    -0.365 N 
ATOM     63  CH2 TRP B   6       9.591  86.860  68.679  1.00  0.00     0.002 A 
ATOM     64  CZ3 TRP B   6      10.229  88.070  68.979  1.00  0.00     0.001 A 
ATOM     65  HE1 TRP B   6       6.761  87.508  65.677  1.00  0.23     0.165 HD
ATOM     66  CD1 TRP B   6       7.376  89.517  65.728  1.00  0.00     0.096 A 
ENDBRANCH  56  57
ENDBRANCH  55  56
BRANCH  55  67
ATOM     67  C   TRP B   6      10.544  91.450  64.791  1.00  0.00     0.241 C 
ATOM     68  N   VAL B   7      11.593  92.215  65.080  1.00  6.11    -0.344 N 
ATOM     69  H   VAL B   7      11.443  93.115  65.435  1.00  0.23     0.163 HD
ATOM     70  O   TRP B   6      10.649  90.309  64.339  1.00  0.00    -0.271 OA
BRANCH  68  71
ATOM     71  CA  VAL B   7      12.959  91.749  64.880  1.00  5.65     0.189 C 
BRANCH  71  72
ATOM     72  CB  VAL B   7      13.893  92.911  64.490  1.00  1.15     0.010 C 
ATOM     73  CG1 VAL B   7      15.241  92.380  64.026  1.00  4.96     0.012 C 
ATOM     74  CG2 VAL B   7      13.254  93.776  63.414  1.00  9.83     0.012 C 
ENDBRANCH  71  72
BRANCH  71  75
ATOM     75  C   VAL B   7      13.501  91.075  66.138  1.00  4.44     0.197 C 
ATOM     76  OXT VAL B   7      13.708  91.781  67.145  1.00  0.00    -0.646 OA
ATOM     77  O   VAL B   7      13.710  89.844  66.102  1.00  0.00    -0.646 OA
ENDBRANCH  71  75
ENDBRANCH  68  71
ENDBRANCH  55  67
ENDBRANCH  52  55
ENDBRANCH  46  51
ENDBRANCH  44  46
ENDBRANCH   1  42
TORSDOF 26
ENDMDL
MODEL 2
REMARK VINA RESULT:      -7.0      2.394      7.139
REMARK  26 active torsions:
REMARK  status: ('A' for Active; 'I' for Inactive)
REMARK    1  A    between atoms: N_1  and  CA_2 
REMARK    2  A    between atoms: CA_2  and  CB_5 
REMARK    3  A    between atoms: CA_2  and  C_3 
REMARK       I    between atoms: C_3  and  N_16 
REMARK    4  A    between atoms: CB_5  and  CG_6 
REMARK    5  A    between atoms: CA_13  and  C_14 
REMARK    6  A    between atoms: CA_13  and  N_16 
REMARK       I    between atoms: C_14  and  N_31 
REMARK    7  A    between atoms: CA_18  and  CB_20 
REMARK    8  A    between atoms: CA_18  and  N_31 
REMARK    9  A    between atoms: CA_18  and  C_19 
REMARK       I    between atoms: C_19  and  N_40 
REMARK   10  A    between atoms: CB_20  and  CG_21 
REMARK   11  A    between atoms: CA_34  and  N_40 
REMARK   12  A    between atoms: CA_34  and  CB_36 
REMARK   13  A    between atoms: CA_34  and  C_35 
REMARK       I    between atoms: C_35  and  N_50 
REMARK   14  A    between atoms: CB_36  and  CG_37 
REMARK   15  A    between atoms: CG_37  and  CD_38 
REMARK   16  A    between atoms: CA_44  and  N_50 
REMARK   17  A    between atoms: CA_44  and  CB_46 
REMARK   18  A    between atoms: CA_44  and  C_45 
REMARK       I    between atoms: C_45  and  N_66 
REMARK   19  A    between atoms: CB_46  and  OG1_52 
REMARK   20  A    between atoms: CA_53  and  CB_55 
REMARK   21  A    between atoms: CA_53  and  N_66 
REMARK   22  A    between atoms: CA_53  and  C_54 
REMARK       I    between atoms: C_54  and  N_75 
REMARK   23  A    between atoms: CB_55  and  CG_56 
REMARK   24  A    between atoms: CA_69  and  N_75 
REMARK   25  A    between atoms: CA_69  and  CB_71 
REMARK   26  A    between atoms: CA_69  and  C_70 
ROOT
ATOM      1  CA  GLU B   4       6.142  90.067  62.064  1.00  0.00     0.177 C 
ENDROOT
BRANCH   1   2
ATOM      2  N   GLU B   4       4.791  89.772  62.538  1.00  0.00    -0.346 N 
ATOM      3  C   TRP B   3       4.580  89.264  63.750  1.00  0.00     0.241 C 
ATOM      4  O   TRP B   3       5.493  89.013  64.535  1.00  0.00    -0.271 OA
ATOM      5  H   GLU B   4       4.027  89.954  61.953  1.00  0.23     0.163 HD
BRANCH   3   6
ATOM      6  CA  TRP B   3       3.127  89.000  64.134  1.00  0.00     0.181 C 
BRANCH   6   7
ATOM      7  CB  TRP B   3       3.004  88.862  65.658  1.00  0.00     0.075 C 
BRANCH   7   8
ATOM      8  CG  TRP B   3       2.169  89.929  66.304  1.00  0.00    -0.028 A 
ATOM      9  CD1 TRP B   3       1.274  90.754  65.685  1.00  0.00     0.096 A 
ATOM     10  NE1 TRP B   3       0.707  91.608  66.602  1.00  0.00    -0.365 N 
ATOM     11  CE2 TRP B   3       1.235  91.345  67.839  1.00  0.00     0.042 A 
ATOM     12  HE1 TRP B   3       0.034  92.291  66.401  1.00  0.23     0.165 HD
ATOM     13  CZ2 TRP B   3       0.975  91.941  69.071  1.00  0.00     0.030 A 
ATOM     14  CD2 TRP B   3       2.160  90.294  67.689  1.00  0.00    -0.002 A 
ATOM     15  CH2 TRP B   3       1.658  91.469  70.158  1.00  0.00     0.002 A 
ATOM     16  CZ3 TRP B   3       2.586  90.428  70.041  1.00  0.00     0.001 A 
ATOM     17  CE3 TRP B   3       2.844  89.835  68.819  1.00  0.00     0.014 A 
ENDBRANCH   7   8
ENDBRANCH   6   7
BRANCH   6  18
ATOM     18  N   TRP B   3       2.611  87.813  63.457  1.00  0.00    -0.346 N 
ATOM     19  C   GLY B   2       1.439  87.823  62.828  1.00  0.00     0.236 C 
ATOM     20  O   GLY B   2       0.716  88.817  62.773  1.00  0.00    -0.272 OA
ATOM     21  H   TRP B   3       3.145  86.990  63.461  1.00  0.23     0.163 HD
BRANCH  19  22
ATOM     22  CA  GLY B   2       1.022  86.527  62.161  1.00  0.00     0.225 C 
BRANCH  22  23
ATOM     23  N   GLY B   2       1.939  86.120  61.111  1.00  0.00    -0.350 N 
ATOM     24  H   GLY B   2       2.795  85.707  61.346  1.00  0.23     0.163 HD
ATOM     25  C   PHE B   1       1.652  86.294  59.822  1.00  0.00     0.254 C 
ATOM     26  O   PHE B   1       0.576  86.811  59.455  1.00  0.00    -0.271 OA
BRANCH  25  27
ATOM     27  CA  PHE B   1       2.687  85.849  58.816  1.00  0.00     0.354 C 
BRANCH  27  28
ATOM     28  N   PHE B   1       2.213  86.054  57.450  1.00  0.00     0.312 N 
ATOM     29  H   PHE B   1       1.151  86.044  57.438  1.00  0.00     0.359 HD
ENDBRANCH  27  28
BRANCH  27  30
ATOM     30  CB  PHE B   1       4.000  86.654  59.054  1.00  0.00     0.086 C 
BRANCH  30  31
ATOM     31  CG  PHE B   1       5.315  85.868  58.945  1.00  0.00    -0.056 A 
ATOM     32  CD1 PHE B   1       5.917  85.698  57.693  1.00  0.00     0.007 A 
ATOM     33  CE1 PHE B   1       7.064  84.921  57.565  1.00  0.00     0.001 A 
ATOM     34  CZ  PHE B   1       7.626  84.324  58.692  1.00  0.00     0.000 A 
ATOM     35  CE2 PHE B   1       7.040  84.498  59.944  1.00  0.00     0.001 A 
ATOM     36  CD2 PHE B   1       5.885  85.267  60.070  1.00  0.00     0.007 A 
ENDBRANCH  30  31
ENDBRANCH  27  30
ENDBRANCH  25  27
ENDBRANCH  22  23
ENDBRANCH  19  22
ENDBRANCH   6  18
ENDBRANCH   3   6
ENDBRANCH   1   2
BRANCH   1  37
ATOM     37  CB  GLU B   4       6.194  90.026  60.536  1.00  0.00     0.045 C 
BRANCH  37  38
ATOM     38  CG  GLU B   4       7.087  88.924  59.991  1.00  0.00     0.116 C 
BRANCH  38  39
ATOM     39  CD  GLU B   4       7.341  89.057  58.502  1.00  0.00     0.172 C 
ATOM     40  OE1 GLU B   4       8.521  89.164  58.108  1.00  0.00    -0.648 OA
ATOM     41  OE2 GLU B   4       6.359  89.055  57.730  1.00  0.00    -0.648 OA
ENDBRANCH  38  39
ENDBRANCH  37  38
ENDBRANCH   1  37
BRANCH   1  42
ATOM     42  C   GLU B   4       6.605  91.434  62.559  1.00  0.00     0.241 C 
ATOM     43  O   GLU B   4       6.709  92.383  61.782  1.00  0.00    -0.271 OA
ATOM     44  N   THR B   5       6.884  91.524  63.856  1.00  7.70    -0.344 N 
ATOM     45  H   THR B   5       6.782  90.729  64.420  1.00  0.23     0.163 HD
BRANCH  44  46
ATOM     46  CA  THR B   5       7.341  92.771  64.463  1.00  7.88     0.205 C 
BRANCH  46  47
ATOM     47  CB  THR B   5       6.443  93.146  65.643  1.00  4.05     0.146 C 
ATOM     48  CG2 THR B   5       4.985  92.814  65.414  1.00  3.72     0.042 C 
BRANCH  47  49
ATOM     49  OG1 THR B   5       6.856  92.475  66.820  1.00  7.31    -0.393 OA
ATOM     50  HG1 THR B   5       6.677  91.536  66.732  1.00  0.23     0.210 HD
ENDBRANCH  47  49
ENDBRANCH  46  47
BRANCH  46  51
ATOM     51  C   THR B   5       8.787  92.643  64.929  1.00  7.05     0.243 C 
ATOM     52  N   TRP B   6       9.322  91.429  64.862  1.00  0.00    -0.346 N 
ATOM     53  H   TRP B   6       8.781  90.685  64.523  1.00  0.23     0.163 HD
ATOM     54  O   THR B   5       9.404  93.624  65.344  1.00  6.06    -0.271 OA
BRANCH  52  55
ATOM     55  CA  TRP B   6      10.694  91.174  65.281  1.00  0.00     0.181 C 
BRANCH  55  56
ATOM     56  CB  TRP B   6      11.395  92.490  65.622  1.00  0.00     0.075 C 
BRANCH  56  57
ATOM     57  CG  TRP B   6      12.709  92.651  64.921  1.00  0.00    -0.028 A 
ATOM     58  CD2 TRP B   6      13.043  93.647  63.946  1.00  0.00    -0.002 A 
ATOM     59  CE2 TRP B   6      14.380  93.425  63.565  1.00  0.00     0.042 A 
ATOM     60  CE3 TRP B   6      12.341  94.703  63.359  1.00  0.00     0.014 A 
ATOM     61  CZ2 TRP B   6      15.027  94.221  62.625  1.00  0.00     0.030 A 
ATOM     62  NE1 TRP B   6      14.837  92.344  64.275  1.00  0.00    -0.365 N 
ATOM     63  CH2 TRP B   6      14.317  95.248  62.065  1.00  0.00     0.002 A 
ATOM     64  CZ3 TRP B   6      12.987  95.493  62.425  1.00  0.00     0.001 A 
ATOM     65  HE1 TRP B   6      15.737  91.961  64.214  1.00  0.23     0.165 HD
ATOM     66  CD1 TRP B   6      13.827  91.886  65.087  1.00  0.00     0.096 A 
ENDBRANCH  56  57
ENDBRANCH  55  56
BRANCH  55  67
ATOM     67  C   TRP B   6      10.732  90.232  66.481  1.00  0.00     0.241 C 
ATOM     68  N   VAL B   7       9.593  89.611  66.772  1.00  6.11    -0.344 N 
ATOM     69  H   VAL B   7       8.803  89.779  66.218  1.00  0.23     0.163 HD
ATOM     70  O   TRP B   6      11.768  90.076  67.128  1.00  0.00    -0.271 OA
BRANCH  68  71
ATOM     71  CA  VAL B   7       9.491  88.687  67.894  1.00  5.65     0.189 C 
BRANCH  71  72
ATOM     72  CB  VAL B   7       8.634  89.281  69.029  1.00  1.15     0.010 C 
ATOM     73  CG1 VAL B   7       8.922  88.571  70.343  1.00  4.96     0.012 C 
ATOM     74  CG2 VAL B   7       8.878  90.777  69.159  1.00  9.83     0.012 C 
ENDBRANCH  71  72
BRANCH  71  75
ATOM     75  C   VAL B   7       8.886  87.355  67.457  1.00  4.44     0.197 C 
ATOM     76  OXT VAL B   7       9.419  86.302  67.863  1.00  0.00    -0.646 OA
ATOM     77  O   VAL B   7       7.883  87.379  66.714  1.00  0.00    -0.646 OA
ENDBRANCH  71  75
ENDBRANCH  68  71
ENDBRANCH  55  67
ENDBRANCH  52  55
ENDBRANCH  46  51
ENDBRANCH  44  46
ENDBRANCH   1  42
TORSDOF 26
ENDMDL
MODEL 3
REMARK VINA RESULT:      -6.8      2.651      3.802
REMARK  26 active torsions:
REMARK  status: ('A' for Active; 'I' for Inactive)
REMARK    1  A    between atoms: N_1  and  CA_2 
REMARK    2  A    between atoms: CA_2  and  CB_5 
REMARK    3  A    between atoms: CA_2  and  C_3 
REMARK       I    between atoms: C_3  and  N_16 
REMARK    4  A    between atoms: CB_5  and  CG_6 
REMARK    5  A    between atoms: CA_13  and  C_14 
REMARK    6  A    between atoms: CA_13  and  N_16 
REMARK       I    between atoms: C_14  and  N_31 
REMARK    7  A    between atoms: CA_18  and  CB_20 
REMARK    8  A    between atoms: CA_18  and  N_31 
REMARK    9  A    between atoms: CA_18  and  C_19 
REMARK       I    between atoms: C_19  and  N_40 
REMARK   10  A    between atoms: CB_20  and  CG_21 
REMARK   11  A    between atoms: CA_34  and  N_40 
REMARK   12  A    between atoms: CA_34  and  CB_36 
REMARK   13  A    between atoms: CA_34  and  C_35 
REMARK       I    between atoms: C_35  and  N_50 
REMARK   14  A    between atoms: CB_36  and  CG_37 
REMARK   15  A    between atoms: CG_37  and  CD_38 
REMARK   16  A    between atoms: CA_44  and  N_50 
REMARK   17  A    between atoms: CA_44  and  CB_46 
REMARK   18  A    between atoms: CA_44  and  C_45 
REMARK       I    between atoms: C_45  and  N_66 
REMARK   19  A    between atoms: CB_46  and  OG1_52 
REMARK   20  A    between atoms: CA_53  and  CB_55 
REMARK   21  A    between atoms: CA_53  and  N_66 
REMARK   22  A    between atoms: CA_53  and  C_54 
REMARK       I    between atoms: C_54  and  N_75 
REMARK   23  A    between atoms: CB_55  and  CG_56 
REMARK   24  A    between atoms: CA_69  and  N_75 
REMARK   25  A    between atoms: CA_69  and  CB_71 
REMARK   26  A    between atoms: CA_69  and  C_70 
ROOT
ATOM      1  CA  GLU B   4       6.607  90.306  61.981  1.00  0.00     0.177 C 
ENDROOT
BRANCH   1   2
ATOM      2  N   GLU B   4       5.297  89.865  62.456  1.00  0.00    -0.346 N 
ATOM      3  C   TRP B   3       5.169  89.157  63.575  1.00  0.00     0.241 C 
ATOM      4  O   TRP B   3       6.131  88.831  64.269  1.00  0.00    -0.271 OA
ATOM      5  H   GLU B   4       4.497  90.099  61.941  1.00  0.23     0.163 HD
BRANCH   3   6
ATOM      6  CA  TRP B   3       3.751  88.756  63.970  1.00  0.00     0.181 C 
BRANCH   6   7
ATOM      7  CB  TRP B   3       2.732  89.625  63.219  1.00  0.00     0.075 C 
BRANCH   7   8
ATOM      8  CG  TRP B   3       1.901  88.869  62.223  1.00  0.00    -0.028 A 
ATOM      9  CD1 TRP B   3       0.930  87.950  62.497  1.00  0.00     0.096 A 
ATOM     10  NE1 TRP B   3       0.395  87.464  61.327  1.00  0.00    -0.365 N 
ATOM     11  CE2 TRP B   3       1.022  88.068  60.269  1.00  0.00     0.042 A 
ATOM     12  HE1 TRP B   3      -0.319  86.796  61.263  1.00  0.23     0.165 HD
ATOM     13  CZ2 TRP B   3       0.827  87.906  58.899  1.00  0.00     0.030 A 
ATOM     14  CD2 TRP B   3       1.978  88.958  60.795  1.00  0.00    -0.002 A 
ATOM     15  CH2 TRP B   3       1.607  88.650  58.057  1.00  0.00     0.002 A 
ATOM     16  CZ3 TRP B   3       2.567  89.542  58.550  1.00  0.00     0.001 A 
ATOM     17  CE3 TRP B   3       2.761  89.704  59.908  1.00  0.00     0.014 A 
ENDBRANCH   7   8
ENDBRANCH   6   7
BRANCH   6  18
ATOM     18  N   TRP B   3       3.560  88.856  65.415  1.00  0.00    -0.346 N 
ATOM     19  C   GLY B   2       2.908  87.919  66.099  1.00  0.00     0.236 C 
ATOM     20  O   GLY B   2       2.425  86.919  65.571  1.00  0.00    -0.272 OA
ATOM     21  H   TRP B   3       3.928  89.629  65.894  1.00  0.23     0.163 HD
BRANCH  19  22
ATOM     22  CA  GLY B   2       2.784  88.141  67.594  1.00  0.00     0.225 C 
BRANCH  22  23
ATOM     23  N   GLY B   2       3.352  87.051  68.368  1.00  0.00    -0.350 N 
ATOM     24  H   GLY B   2       3.409  86.155  67.977  1.00  0.23     0.163 HD
ATOM     25  C   PHE B   1       3.802  87.231  69.609  1.00  0.00     0.254 C 
ATOM     26  O   PHE B   1       3.761  88.349  70.163  1.00  0.00    -0.271 OA
BRANCH  25  27
ATOM     27  CA  PHE B   1       4.357  86.023  70.326  1.00  0.00     0.354 C 
BRANCH  27  28
ATOM     28  N   PHE B   1       3.293  85.085  70.670  1.00  0.00     0.312 N 
ATOM     29  H   PHE B   1       2.529  85.594  71.203  1.00  0.00     0.359 HD
ENDBRANCH  27  28
BRANCH  27  30
ATOM     30  CB  PHE B   1       5.407  85.329  69.406  1.00  0.00     0.086 C 
BRANCH  30  31
ATOM     31  CG  PHE B   1       6.875  85.728  69.621  1.00  0.00    -0.056 A 
ATOM     32  CD1 PHE B   1       7.799  85.547  68.584  1.00  0.00     0.007 A 
ATOM     33  CE1 PHE B   1       9.146  85.826  68.789  1.00  0.00     0.001 A 
ATOM     34  CZ  PHE B   1       9.575  86.304  70.025  1.00  0.00     0.000 A 
ATOM     35  CE2 PHE B   1       8.660  86.499  71.058  1.00  0.00     0.001 A 
ATOM     36  CD2 PHE B   1       7.313  86.209  70.857  1.00  0.00     0.007 A 
ENDBRANCH  30  31
ENDBRANCH  27  30
ENDBRANCH  25  27
ENDBRANCH  22  23
ENDBRANCH  19  22
ENDBRANCH   6  18
ENDBRANCH   3   6
ENDBRANCH   1   2
BRANCH   1  37
ATOM     37  CB  GLU B   4       6.653  90.299  60.452  1.00  0.00     0.045 C 
BRANCH  37  38
ATOM     38  CG  GLU B   4       6.328  88.944  59.844  1.00  0.00     0.116 C 
BRANCH  38  39
ATOM     39  CD  GLU B   4       7.217  87.835  60.374  1.00  0.00     0.172 C 
ATOM     40  OE1 GLU B   4       8.438  87.880  60.117  1.00  0.00    -0.648 OA
ATOM     41  OE2 GLU B   4       6.692  86.923  61.045  1.00  0.00    -0.648 OA
ENDBRANCH  38  39
ENDBRANCH  37  38
ENDBRANCH   1  37
BRANCH   1  42
ATOM     42  C   GLU B   4       6.931  91.704  62.499  1.00  0.00     0.241 C 
ATOM     43  O   GLU B   4       6.823  92.688  61.767  1.00  0.00    -0.271 OA
ATOM     44  N   THR B   5       7.332  91.781  63.765  1.00  7.70    -0.344 N 
ATOM     45  H   THR B   5       7.398  90.958  64.294  1.00  0.23     0.163 HD
BRANCH  44  46
ATOM     46  CA  THR B   5       7.678  93.055  64.389  1.00  7.88     0.205 C 
BRANCH  46  47
ATOM     47  CB  THR B   5       6.750  93.335  65.573  1.00  4.05     0.146 C 
ATOM     48  CG2 THR B   5       5.283  93.258  65.213  1.00  3.72     0.042 C 
BRANCH  47  49
ATOM     49  OG1 THR B   5       6.984  92.412  66.621  1.00  7.31    -0.393 OA
ATOM     50  HG1 THR B   5       7.866  92.044  66.533  1.00  0.23     0.210 HD
ENDBRANCH  47  49
ENDBRANCH  46  47
BRANCH  46  51
ATOM     51  C   THR B   5       9.130  93.048  64.856  1.00  7.05     0.243 C 
ATOM     52  N   TRP B   6       9.653  91.858  65.131  1.00  0.00    -0.346 N 
ATOM     53  H   TRP B   6       9.101  91.055  65.024  1.00  0.23     0.163 HD
ATOM     54  O   THR B   5       9.761  94.098  64.967  1.00  6.06    -0.271 OA
BRANCH  52  55
ATOM     55  CA  TRP B   6      11.029  91.717  65.589  1.00  0.00     0.181 C 
BRANCH  55  56
ATOM     56  CB  TRP B   6      11.172  90.462  66.452  1.00  0.00     0.075 C 
BRANCH  56  57
ATOM     57  CG  TRP B   6       9.861  89.793  66.732  1.00  0.00    -0.028 A 
ATOM     58  CD2 TRP B   6       9.060  89.938  67.911  1.00  0.00    -0.002 A 
ATOM     59  CE2 TRP B   6       7.917  89.136  67.739  1.00  0.00     0.042 A 
ATOM     60  CE3 TRP B   6       9.201  90.667  69.095  1.00  0.00     0.014 A 
ATOM     61  CZ2 TRP B   6       6.920  89.045  68.707  1.00  0.00     0.030 A 
ATOM     62  NE1 TRP B   6       8.018  88.532  66.513  1.00  0.00    -0.365 N 
ATOM     63  CH2 TRP B   6       7.082  89.768  69.857  1.00  0.00     0.002 A 
ATOM     64  CZ3 TRP B   6       8.209  90.575  70.055  1.00  0.00     0.001 A 
ATOM     65  HE1 TRP B   6       7.362  87.915  66.125  1.00  0.23     0.165 HD
ATOM     66  CD1 TRP B   6       9.188  88.932  65.915  1.00  0.00     0.096 A 
ENDBRANCH  56  57
ENDBRANCH  55  56
BRANCH  55  67
ATOM     67  C   TRP B   6      11.994  91.657  64.409  1.00  0.00     0.241 C 
ATOM     68  N   VAL B   7      12.726  92.746  64.197  1.00  6.11    -0.344 N 
ATOM     69  H   VAL B   7      12.617  93.517  64.791  1.00  0.23     0.163 HD
ATOM     70  O   TRP B   6      12.070  90.648  63.707  1.00  0.00    -0.271 OA
BRANCH  68  71
ATOM     71  CA  VAL B   7      13.684  92.823  63.101  1.00  5.65     0.189 C 
BRANCH  71  72
ATOM     72  CB  VAL B   7      13.810  94.265  62.572  1.00  1.15     0.010 C 
ATOM     73  CG1 VAL B   7      12.515  95.032  62.796  1.00  4.96     0.012 C 
ATOM     74  CG2 VAL B   7      14.981  94.980  63.231  1.00  9.83     0.012 C 
ENDBRANCH  71  72
BRANCH  71  75
ATOM     75  C   VAL B   7      15.060  92.330  63.538  1.00  4.44     0.197 C 
ATOM     76  OXT VAL B   7      15.319  92.301  64.758  1.00  0.00    -0.646 OA
ATOM     77  O   VAL B   7      15.867  91.975  62.653  1.00  0.00    -0.646 OA
ENDBRANCH  71  75
ENDBRANCH  68  71
ENDBRANCH  55  67
ENDBRANCH  52  55
ENDBRANCH  46  51
ENDBRANCH  44  46
ENDBRANCH   1  42
TORSDOF 26
ENDMDL
MODEL 4
REMARK VINA RESULT:      -6.8      3.122      7.544
REMARK  26 active torsions:
REMARK  status: ('A' for Active; 'I' for Inactive)
REMARK    1  A    between atoms: N_1  and  CA_2 
REMARK    2  A    between atoms: CA_2  and  CB_5 
REMARK    3  A    between atoms: CA_2  and  C_3 
REMARK       I    between atoms: C_3  and  N_16 
REMARK    4  A    between atoms: CB_5  and  CG_6 
REMARK    5  A    between atoms: CA_13  and  C_14 
REMARK    6  A    between atoms: CA_13  and  N_16 
REMARK       I    between atoms: C_14  and  N_31 
REMARK    7  A    between atoms: CA_18  and  CB_20 
REMARK    8  A    between atoms: CA_18  and  N_31 
REMARK    9  A    between atoms: CA_18  and  C_19 
REMARK       I    between atoms: C_19  and  N_40 
REMARK   10  A    between atoms: CB_20  and  CG_21 
REMARK   11  A    between atoms: CA_34  and  N_40 
REMARK   12  A    between atoms: CA_34  and  CB_36 
REMARK   13  A    between atoms: CA_34  and  C_35 
REMARK       I    between atoms: C_35  and  N_50 
REMARK   14  A    between atoms: CB_36  and  CG_37 
REMARK   15  A    between atoms: CG_37  and  CD_38 
REMARK   16  A    between atoms: CA_44  and  N_50 
REMARK   17  A    between atoms: CA_44  and  CB_46 
REMARK   18  A    between atoms: CA_44  and  C_45 
REMARK       I    between atoms: C_45  and  N_66 
REMARK   19  A    between atoms: CB_46  and  OG1_52 
REMARK   20  A    between atoms: CA_53  and  CB_55 
REMARK   21  A    between atoms: CA_53  and  N_66 
REMARK   22  A    between atoms: CA_53  and  C_54 
REMARK       I    between atoms: C_54  and  N_75 
REMARK   23  A    between atoms: CB_55  and  CG_56 
REMARK   24  A    between atoms: CA_69  and  N_75 
REMARK   25  A    between atoms: CA_69  and  CB_71 
REMARK   26  A    between atoms: CA_69  and  C_70 
ROOT
ATOM      1  CA  GLU B   4       5.540  90.889  61.949  1.00  0.00     0.177 C 
ENDROOT
BRANCH   1   2
ATOM      2  N   GLU B   4       4.262  90.582  62.587  1.00  0.00    -0.346 N 
ATOM      3  C   TRP B   3       4.206  90.057  63.808  1.00  0.00     0.241 C 
ATOM      4  O   TRP B   3       5.212  89.799  64.467  1.00  0.00    -0.271 OA
ATOM      5  H   GLU B   4       3.429  90.770  62.106  1.00  0.23     0.163 HD
BRANCH   3   6
ATOM      6  CA  TRP B   3       2.814  89.784  64.370  1.00  0.00     0.181 C 
BRANCH   6   7
ATOM      7  CB  TRP B   3       2.893  89.577  65.890  1.00  0.00     0.075 C 
BRANCH   7   8
ATOM      8  CG  TRP B   3       2.123  90.590  66.685  1.00  0.00    -0.028 A 
ATOM      9  CD1 TRP B   3       1.310  91.571  66.194  1.00  0.00     0.096 A 
ATOM     10  NE1 TRP B   3       0.783  92.309  67.227  1.00  0.00    -0.365 N 
ATOM     11  CE2 TRP B   3       1.254  91.812  68.414  1.00  0.00     0.042 A 
ATOM     12  HE1 TRP B   3       0.169  93.067  67.129  1.00  0.23     0.165 HD
ATOM     13  CZ2 TRP B   3       1.005  92.222  69.721  1.00  0.00     0.030 A 
ATOM     14  CD2 TRP B   3       2.102  90.729  68.111  1.00  0.00    -0.002 A 
ATOM     15  CH2 TRP B   3       1.620  91.531  70.729  1.00  0.00     0.002 A 
ATOM     16  CZ3 TRP B   3       2.470  90.452  70.460  1.00  0.00     0.001 A 
ATOM     17  CE3 TRP B   3       2.717  90.044  69.163  1.00  0.00     0.014 A 
ENDBRANCH   7   8
ENDBRANCH   6   7
BRANCH   6  18
ATOM     18  N   TRP B   3       2.200  88.632  63.716  1.00  0.00    -0.346 N 
ATOM     19  C   GLY B   2       0.880  88.523  63.589  1.00  0.00     0.236 C 
ATOM     20  O   GLY B   2       0.094  89.371  64.008  1.00  0.00    -0.272 OA
ATOM     21  H   TRP B   3       2.775  87.924  63.356  1.00  0.23     0.163 HD
BRANCH  19  22
ATOM     22  CA  GLY B   2       0.372  87.280  62.885  1.00  0.00     0.225 C 
BRANCH  22  23
ATOM     23  N   GLY B   2       1.343  86.729  61.957  1.00  0.00    -0.350 N 
ATOM     24  H   GLY B   2       1.591  87.234  61.154  1.00  0.23     0.163 HD
ATOM     25  C   PHE B   1       1.915  85.543  62.160  1.00  0.00     0.254 C 
ATOM     26  O   PHE B   1       1.645  84.850  63.163  1.00  0.00    -0.271 OA
BRANCH  25  27
ATOM     27  CA  PHE B   1       2.898  85.061  61.120  1.00  0.00     0.354 C 
BRANCH  27  28
ATOM     28  N   PHE B   1       2.942  85.971  59.979  1.00  0.00     0.312 N 
ATOM     29  H   PHE B   1       2.243  85.653  59.245  1.00  0.00     0.359 HD
ENDBRANCH  27  28
BRANCH  27  30
ATOM     30  CB  PHE B   1       4.310  84.953  61.773  1.00  0.00     0.086 C 
BRANCH  30  31
ATOM     31  CG  PHE B   1       5.443  85.731  61.087  1.00  0.00    -0.056 A 
ATOM     32  CD1 PHE B   1       6.183  85.119  60.068  1.00  0.00     0.007 A 
ATOM     33  CE1 PHE B   1       7.264  85.779  59.493  1.00  0.00     0.001 A 
ATOM     34  CZ  PHE B   1       7.601  87.061  59.920  1.00  0.00     0.000 A 
ATOM     35  CE2 PHE B   1       6.861  87.682  60.925  1.00  0.00     0.001 A 
ATOM     36  CD2 PHE B   1       5.786  87.017  61.509  1.00  0.00     0.007 A 
ENDBRANCH  30  31
ENDBRANCH  27  30
ENDBRANCH  25  27
ENDBRANCH  22  23
ENDBRANCH  19  22
ENDBRANCH   6  18
ENDBRANCH   3   6
ENDBRANCH   1   2
BRANCH   1  37
ATOM     37  CB  GLU B   4       5.351  91.113  60.448  1.00  0.00     0.045 C 
BRANCH  37  38
ATOM     38  CG  GLU B   4       3.927  90.869  59.976  1.00  0.00     0.116 C 
BRANCH  38  39
ATOM     39  CD  GLU B   4       3.605  89.395  59.822  1.00  0.00     0.172 C 
ATOM     40  OE1 GLU B   4       2.852  88.861  60.663  1.00  0.00    -0.648 OA
ATOM     41  OE2 GLU B   4       4.107  88.775  58.861  1.00  0.00    -0.648 OA
ENDBRANCH  38  39
ENDBRANCH  37  38
ENDBRANCH   1  37
BRANCH   1  42
ATOM     42  C   GLU B   4       6.180  92.123  62.578  1.00  0.00     0.241 C 
ATOM     43  O   GLU B   4       5.805  93.254  62.267  1.00  0.00    -0.271 OA
ATOM     44  N   THR B   5       7.148  91.896  63.460  1.00  7.70    -0.344 N 
ATOM     45  H   THR B   5       7.400  90.970  63.662  1.00  0.23     0.163 HD
BRANCH  44  46
ATOM     46  CA  THR B   5       7.849  92.985  64.135  1.00  7.88     0.205 C 
BRANCH  46  47
ATOM     47  CB  THR B   5       7.900  92.729  65.642  1.00  4.05     0.146 C 
ATOM     48  CG2 THR B   5       6.562  92.912  66.325  1.00  3.72     0.042 C 
BRANCH  47  49
ATOM     49  OG1 THR B   5       8.342  91.410  65.911  1.00  7.31    -0.393 OA
ATOM     50  HG1 THR B   5       9.215  91.283  65.535  1.00  0.23     0.210 HD
ENDBRANCH  47  49
ENDBRANCH  46  47
BRANCH  46  51
ATOM     51  C   THR B   5       9.263  93.137  63.585  1.00  7.05     0.243 C 
ATOM     52  N   TRP B   6       9.696  94.381  63.409  1.00  0.00    -0.346 N 
ATOM     53  H   TRP B   6       9.105  95.129  63.635  1.00  0.23     0.163 HD
ATOM     54  O   THR B   5       9.946  92.147  63.322  1.00  6.06    -0.271 OA
BRANCH  52  55
ATOM     55  CA  TRP B   6      11.027  94.659  62.886  1.00  0.00     0.181 C 
BRANCH  55  56
ATOM     56  CB  TRP B   6      11.181  96.155  62.604  1.00  0.00     0.075 C 
BRANCH  56  57
ATOM     57  CG  TRP B   6      12.010  96.438  61.389  1.00  0.00    -0.028 A 
ATOM     58  CD2 TRP B   6      11.804  97.489  60.437  1.00  0.00    -0.002 A 
ATOM     59  CE2 TRP B   6      12.821  97.380  59.470  1.00  0.00     0.042 A 
ATOM     60  CE3 TRP B   6      10.857  98.509  60.309  1.00  0.00     0.014 A 
ATOM     61  CZ2 TRP B   6      12.917  98.255  58.392  1.00  0.00     0.030 A 
ATOM     62  NE1 TRP B   6      13.609  96.313  59.818  1.00  0.00    -0.365 N 
ATOM     63  CH2 TRP B   6      11.978  99.244  58.289  1.00  0.00     0.002 A 
ATOM     64  CZ3 TRP B   6      10.955  99.377  59.236  1.00  0.00     0.001 A 
ATOM     65  HE1 TRP B   6      14.396  96.001  59.325  1.00  0.23     0.165 HD
ATOM     66  CD1 TRP B   6      13.114  95.753  60.972  1.00  0.00     0.096 A 
ENDBRANCH  56  57
ENDBRANCH  55  56
BRANCH  55  67
ATOM     67  C   TRP B   6      12.104  94.194  63.861  1.00  0.00     0.241 C 
ATOM     68  N   VAL B   7      12.719  93.057  63.552  1.00  6.11    -0.344 N 
ATOM     69  H   VAL B   7      12.462  92.582  62.735  1.00  0.23     0.163 HD
ATOM     70  O   TRP B   6      12.368  94.849  64.870  1.00  0.00    -0.271 OA
BRANCH  68  71
ATOM     71  CA  VAL B   7      13.766  92.498  64.399  1.00  5.65     0.189 C 
BRANCH  71  72
ATOM     72  CB  VAL B   7      13.402  91.077  64.870  1.00  1.15     0.010 C 
ATOM     73  CG1 VAL B   7      12.511  91.135  66.103  1.00  4.96     0.012 C 
ATOM     74  CG2 VAL B   7      12.725  90.296  63.753  1.00  9.83     0.012 C 
ENDBRANCH  71  72
BRANCH  71  75
ATOM     75  C   VAL B   7      15.103  92.453  63.665  1.00  4.44     0.197 C 
ATOM     76  OXT VAL B   7      16.123  92.142  64.313  1.00  0.00    -0.646 OA
ATOM     77  O   VAL B   7      15.116  92.729  62.447  1.00  0.00    -0.646 OA
ENDBRANCH  71  75
ENDBRANCH  68  71
ENDBRANCH  55  67
ENDBRANCH  52  55
ENDBRANCH  46  51
ENDBRANCH  44  46
ENDBRANCH   1  42
TORSDOF 26
ENDMDL
MODEL 5
REMARK VINA RESULT:      -5.9      3.243      7.980
REMARK  26 active torsions:
REMARK  status: ('A' for Active; 'I' for Inactive)
REMARK    1  A    between atoms: N_1  and  CA_2 
REMARK    2  A    between atoms: CA_2  and  CB_5 
REMARK    3  A    between atoms: CA_2  and  C_3 
REMARK       I    between atoms: C_3  and  N_16 
REMARK    4  A    between atoms: CB_5  and  CG_6 
REMARK    5  A    between atoms: CA_13  and  C_14 
REMARK    6  A    between atoms: CA_13  and  N_16 
REMARK       I    between atoms: C_14  and  N_31 
REMARK    7  A    between atoms: CA_18  and  CB_20 
REMARK    8  A    between atoms: CA_18  and  N_31 
REMARK    9  A    between atoms: CA_18  and  C_19 
REMARK       I    between atoms: C_19  and  N_40 
REMARK   10  A    between atoms: CB_20  and  CG_21 
REMARK   11  A    between atoms: CA_34  and  N_40 
REMARK   12  A    between atoms: CA_34  and  CB_36 
REMARK   13  A    between atoms: CA_34  and  C_35 
REMARK       I    between atoms: C_35  and  N_50 
REMARK   14  A    between atoms: CB_36  and  CG_37 
REMARK   15  A    between atoms: CG_37  and  CD_38 
REMARK   16  A    between atoms: CA_44  and  N_50 
REMARK   17  A    between atoms: CA_44  and  CB_46 
REMARK   18  A    between atoms: CA_44  and  C_45 
REMARK       I    between atoms: C_45  and  N_66 
REMARK   19  A    between atoms: CB_46  and  OG1_52 
REMARK   20  A    between atoms: CA_53  and  CB_55 
REMARK   21  A    between atoms: CA_53  and  N_66 
REMARK   22  A    between atoms: CA_53  and  C_54 
REMARK       I    between atoms: C_54  and  N_75 
REMARK   23  A    between atoms: CB_55  and  CG_56 
REMARK   24  A    between atoms: CA_69  and  N_75 
REMARK   25  A    between atoms: CA_69  and  CB_71 
REMARK   26  A    between atoms: CA_69  and  C_70 
ROOT
ATOM      1  CA  GLU B   4       5.864  92.353  63.073  1.00  0.00     0.177 C 
ENDROOT
BRANCH   1   2
ATOM      2  N   GLU B   4       4.684  91.836  63.764  1.00  0.00    -0.346 N 
ATOM      3  C   TRP B   3       4.734  90.709  64.468  1.00  0.00     0.241 C 
ATOM      4  O   TRP B   3       5.760  90.039  64.580  1.00  0.00    -0.271 OA
ATOM      5  H   GLU B   4       3.841  92.332  63.708  1.00  0.23     0.163 HD
BRANCH   3   6
ATOM      6  CA  TRP B   3       3.440  90.271  65.147  1.00  0.00     0.181 C 
BRANCH   6   7
ATOM      7  CB  TRP B   3       3.684  88.999  65.972  1.00  0.00     0.075 C 
BRANCH   7   8
ATOM      8  CG  TRP B   3       4.049  89.261  67.404  1.00  0.00    -0.028 A 
ATOM      9  CD1 TRP B   3       3.273  89.866  68.350  1.00  0.00     0.096 A 
ATOM     10  NE1 TRP B   3       3.950  89.935  69.545  1.00  0.00    -0.365 N 
ATOM     11  CE2 TRP B   3       5.189  89.371  69.385  1.00  0.00     0.042 A 
ATOM     12  HE1 TRP B   3       3.602  90.324  70.374  1.00  0.23     0.165 HD
ATOM     13  CZ2 TRP B   3       6.225  89.207  70.302  1.00  0.00     0.030 A 
ATOM     14  CD2 TRP B   3       5.287  88.936  68.049  1.00  0.00    -0.002 A 
ATOM     15  CH2 TRP B   3       7.369  88.599  69.861  1.00  0.00     0.002 A 
ATOM     16  CZ3 TRP B   3       7.497  88.158  68.539  1.00  0.00     0.001 A 
ATOM     17  CE3 TRP B   3       6.470  88.320  67.629  1.00  0.00     0.014 A 
ENDBRANCH   7   8
ENDBRANCH   6   7
BRANCH   6  18
ATOM     18  N   TRP B   3       2.376  90.065  64.168  1.00  0.00    -0.346 N 
ATOM     19  C   GLY B   2       2.422  89.068  63.288  1.00  0.00     0.236 C 
ATOM     20  O   GLY B   2       3.349  88.262  63.236  1.00  0.00    -0.272 OA
ATOM     21  H   TRP B   3       1.607  90.673  64.162  1.00  0.23     0.163 HD
BRANCH  19  22
ATOM     22  CA  GLY B   2       1.252  88.962  62.329  1.00  0.00     0.225 C 
BRANCH  22  23
ATOM     23  N   GLY B   2       1.372  87.832  61.425  1.00  0.00    -0.350 N 
ATOM     24  H   GLY B   2       1.193  86.926  61.752  1.00  0.23     0.163 HD
ATOM     25  C   PHE B   1       1.724  87.988  60.150  1.00  0.00     0.254 C 
ATOM     26  O   PHE B   1       1.963  89.115  59.670  1.00  0.00    -0.271 OA
BRANCH  25  27
ATOM     27  CA  PHE B   1       1.834  86.740  59.305  1.00  0.00     0.354 C 
BRANCH  27  28
ATOM     28  N   PHE B   1       1.954  87.075  57.889  1.00  0.00     0.312 N 
ATOM     29  H   PHE B   1       1.975  86.183  57.314  1.00  0.00     0.359 HD
ENDBRANCH  27  28
BRANCH  27  30
ATOM     30  CB  PHE B   1       3.079  85.925  59.770  1.00  0.00     0.086 C 
BRANCH  30  31
ATOM     31  CG  PHE B   1       2.836  84.862  60.853  1.00  0.00    -0.056 A 
ATOM     32  CD1 PHE B   1       1.582  84.248  60.949  1.00  0.00     0.007 A 
ATOM     33  CE1 PHE B   1       1.320  83.344  61.973  1.00  0.00     0.001 A 
ATOM     34  CZ  PHE B   1       2.317  83.035  62.897  1.00  0.00     0.000 A 
ATOM     35  CE2 PHE B   1       3.572  83.633  62.800  1.00  0.00     0.001 A 
ATOM     36  CD2 PHE B   1       3.831  84.547  61.782  1.00  0.00     0.007 A 
ENDBRANCH  30  31
ENDBRANCH  27  30
ENDBRANCH  25  27
ENDBRANCH  22  23
ENDBRANCH  19  22
ENDBRANCH   6  18
ENDBRANCH   3   6
ENDBRANCH   1   2
BRANCH   1  37
ATOM     37  CB  GLU B   4       5.491  93.552  62.199  1.00  0.00     0.045 C 
BRANCH  37  38
ATOM     38  CG  GLU B   4       6.344  93.676  60.947  1.00  0.00     0.116 C 
BRANCH  38  39
ATOM     39  CD  GLU B   4       5.530  94.019  59.714  1.00  0.00     0.172 C 
ATOM     40  OE1 GLU B   4       6.017  94.815  58.885  1.00  0.00    -0.648 OA
ATOM     41  OE2 GLU B   4       4.406  93.492  59.580  1.00  0.00    -0.648 OA
ENDBRANCH  38  39
ENDBRANCH  37  38
ENDBRANCH   1  37
BRANCH   1  42
ATOM     42  C   GLU B   4       6.944  92.759  64.071  1.00  0.00     0.241 C 
ATOM     43  O   GLU B   4       6.680  93.499  65.019  1.00  0.00    -0.271 OA
ATOM     44  N   THR B   5       8.161  92.273  63.847  1.00  7.70    -0.344 N 
ATOM     45  H   THR B   5       8.305  91.691  63.071  1.00  0.23     0.163 HD
BRANCH  44  46
ATOM     46  CA  THR B   5       9.289  92.584  64.720  1.00  7.88     0.205 C 
BRANCH  46  47
ATOM     47  CB  THR B   5       9.678  91.354  65.542  1.00  4.05     0.146 C 
ATOM     48  CG2 THR B   5       8.853  91.192  66.801  1.00  3.72     0.042 C 
BRANCH  47  49
ATOM     49  OG1 THR B   5       9.528  90.172  64.777  1.00  7.31    -0.393 OA
ATOM     50  HG1 THR B   5       9.924  90.299  63.912  1.00  0.23     0.210 HD
ENDBRANCH  47  49
ENDBRANCH  46  47
BRANCH  46  51
ATOM     51  C   THR B   5      10.486  93.062  63.903  1.00  7.05     0.243 C 
ATOM     52  N   TRP B   6      10.435  94.315  63.464  1.00  0.00    -0.346 N 
ATOM     53  H   TRP B   6       9.654  94.866  63.679  1.00  0.23     0.163 HD
ATOM     54  O   THR B   5      11.432  92.310  63.673  1.00  6.06    -0.271 OA
BRANCH  52  55
ATOM     55  CA  TRP B   6      11.513  94.890  62.670  1.00  0.00     0.181 C 
BRANCH  55  56
ATOM     56  CB  TRP B   6      11.108  96.270  62.151  1.00  0.00     0.075 C 
BRANCH  56  57
ATOM     57  CG  TRP B   6      11.905  96.703  60.958  1.00  0.00    -0.028 A 
ATOM     58  CD2 TRP B   6      11.678  97.865  60.152  1.00  0.00    -0.002 A 
ATOM     59  CE2 TRP B   6      12.668  97.877  59.151  1.00  0.00     0.042 A 
ATOM     60  CE3 TRP B   6      10.734  98.894  60.179  1.00  0.00     0.014 A 
ATOM     61  CZ2 TRP B   6      12.739  98.880  58.188  1.00  0.00     0.030 A 
ATOM     62  NE1 TRP B   6      13.459  96.774  59.340  1.00  0.00    -0.365 N 
ATOM     63  CH2 TRP B   6      11.802  99.876  58.237  1.00  0.00     0.002 A 
ATOM     64  CZ3 TRP B   6      10.806  99.890  59.221  1.00  0.00     0.001 A 
ATOM     65  HE1 TRP B   6      14.231  96.525  58.790  1.00  0.23     0.165 HD
ATOM     66  CD1 TRP B   6      12.994  96.074  60.427  1.00  0.00     0.096 A 
ENDBRANCH  56  57
ENDBRANCH  55  56
BRANCH  55  67
ATOM     67  C   TRP B   6      12.798  94.991  63.486  1.00  0.00     0.241 C 
ATOM     68  N   VAL B   7      13.725  94.072  63.233  1.00  6.11    -0.344 N 
ATOM     69  H   VAL B   7      13.548  93.391  62.552  1.00  0.23     0.163 HD
ATOM     70  O   TRP B   6      12.943  95.879  64.328  1.00  0.00    -0.271 OA
BRANCH  68  71
ATOM     71  CA  VAL B   7      14.997  94.052  63.944  1.00  5.65     0.189 C 
BRANCH  71  72
ATOM     72  CB  VAL B   7      15.579  92.626  64.005  1.00  1.15     0.010 C 
ATOM     73  CG1 VAL B   7      14.781  91.765  64.975  1.00  4.96     0.012 C 
ATOM     74  CG2 VAL B   7      15.605  91.996  62.621  1.00  9.83     0.012 C 
ENDBRANCH  71  72
BRANCH  71  75
ATOM     75  C   VAL B   7      16.013  94.977  63.281  1.00  4.44     0.197 C 
ATOM     76  OXT VAL B   7      16.766  95.651  64.013  1.00  0.00    -0.646 OA
ATOM     77  O   VAL B   7      16.047  95.018  62.033  1.00  0.00    -0.646 OA
ENDBRANCH  71  75
ENDBRANCH  68  71
ENDBRANCH  55  67
ENDBRANCH  52  55
ENDBRANCH  46  51
ENDBRANCH  44  46
ENDBRANCH   1  42
TORSDOF 26
ENDMDL
MODEL 6
REMARK VINA RESULT:      -5.7      3.123      7.957
REMARK  26 active torsions:
REMARK  status: ('A' for Active; 'I' for Inactive)
REMARK    1  A    between atoms: N_1  and  CA_2 
REMARK    2  A    between atoms: CA_2  and  CB_5 
REMARK    3  A    between atoms: CA_2  and  C_3 
REMARK       I    between atoms: C_3  and  N_16 
REMARK    4  A    between atoms: CB_5  and  CG_6 
REMARK    5  A    between atoms: CA_13  and  C_14 
REMARK    6  A    between atoms: CA_13  and  N_16 
REMARK       I    between atoms: C_14  and  N_31 
REMARK    7  A    between atoms: CA_18  and  CB_20 
REMARK    8  A    between atoms: CA_18  and  N_31 
REMARK    9  A    between atoms: CA_18  and  C_19 
REMARK       I    between atoms: C_19  and  N_40 
REMARK   10  A    between atoms: CB_20  and  CG_21 
REMARK   11  A    between atoms: CA_34  and  N_40 
REMARK   12  A    between atoms: CA_34  and  CB_36 
REMARK   13  A    between atoms: CA_34  and  C_35 
REMARK       I    between atoms: C_35  and  N_50 
REMARK   14  A    between atoms: CB_36  and  CG_37 
REMARK   15  A    between atoms: CG_37  and  CD_38 
REMARK   16  A    between atoms: CA_44  and  N_50 
REMARK   17  A    between atoms: CA_44  and  CB_46 
REMARK   18  A    between atoms: CA_44  and  C_45 
REMARK       I    between atoms: C_45  and  N_66 
REMARK   19  A    between atoms: CB_46  and  OG1_52 
REMARK   20  A    between atoms: CA_53  and  CB_55 
REMARK   21  A    between atoms: CA_53  and  N_66 
REMARK   22  A    between atoms: CA_53  and  C_54 
REMARK       I    between atoms: C_54  and  N_75 
REMARK   23  A    between atoms: CB_55  and  CG_56 
REMARK   24  A    between atoms: CA_69  and  N_75 
REMARK   25  A    between atoms: CA_69  and  CB_71 
REMARK   26  A    between atoms: CA_69  and  C_70 
ROOT
ATOM      1  CA  GLU B   4       4.937  92.019  62.532  1.00  0.00     0.177 C 
ENDROOT
BRANCH   1   2
ATOM      2  N   GLU B   4       3.756  91.559  63.259  1.00  0.00    -0.346 N 
ATOM      3  C   TRP B   3       3.863  90.774  64.327  1.00  0.00     0.241 C 
ATOM      4  O   TRP B   3       4.947  90.390  64.764  1.00  0.00    -0.271 OA
ATOM      5  H   GLU B   4       2.867  91.836  62.953  1.00  0.23     0.163 HD
BRANCH   3   6
ATOM      6  CA  TRP B   3       2.560  90.360  65.004  1.00  0.00     0.181 C 
BRANCH   6   7
ATOM      7  CB  TRP B   3       2.823  89.219  65.997  1.00  0.00     0.075 C 
BRANCH   7   8
ATOM      8  CG  TRP B   3       2.896  89.661  67.430  1.00  0.00    -0.028 A 
ATOM      9  CD1 TRP B   3       3.820  89.276  68.359  1.00  0.00     0.096 A 
ATOM     10  NE1 TRP B   3       3.558  89.884  69.565  1.00  0.00    -0.365 N 
ATOM     11  CE2 TRP B   3       2.448  90.676  69.430  1.00  0.00     0.042 A 
ATOM     12  HE1 TRP B   3       4.082  89.769  70.385  1.00  0.23     0.165 HD
ATOM     13  CZ2 TRP B   3       1.802  91.483  70.365  1.00  0.00     0.030 A 
ATOM     14  CD2 TRP B   3       2.003  90.559  68.099  1.00  0.00    -0.002 A 
ATOM     15  CH2 TRP B   3       0.698  92.175  69.948  1.00  0.00     0.002 A 
ATOM     16  CZ3 TRP B   3       0.231  92.077  68.632  1.00  0.00     0.001 A 
ATOM     17  CE3 TRP B   3       0.871  91.278  67.704  1.00  0.00     0.014 A 
ENDBRANCH   7   8
ENDBRANCH   6   7
BRANCH   6  18
ATOM     18  N   TRP B   3       1.555  89.974  64.017  1.00  0.00    -0.346 N 
ATOM     19  C   GLY B   2       1.792  89.026  63.114  1.00  0.00     0.236 C 
ATOM     20  O   GLY B   2       2.858  88.417  63.046  1.00  0.00    -0.272 OA
ATOM     21  H   TRP B   3       0.682  90.421  64.024  1.00  0.23     0.163 HD
BRANCH  19  22
ATOM     22  CA  GLY B   2       0.662  88.718  62.150  1.00  0.00     0.225 C 
BRANCH  22  23
ATOM     23  N   GLY B   2       0.956  87.584  61.292  1.00  0.00    -0.350 N 
ATOM     24  H   GLY B   2       0.807  86.673  61.620  1.00  0.23     0.163 HD
ATOM     25  C   PHE B   1       1.428  87.741  60.056  1.00  0.00     0.254 C 
ATOM     26  O   PHE B   1       1.637  88.875  59.576  1.00  0.00    -0.271 OA
BRANCH  25  27
ATOM     27  CA  PHE B   1       1.714  86.491  59.259  1.00  0.00     0.354 C 
BRANCH  27  28
ATOM     28  N   PHE B   1       1.933  86.806  57.851  1.00  0.00     0.312 N 
ATOM     29  H   PHE B   1       2.810  86.312  57.509  1.00  0.00     0.359 HD
ENDBRANCH  27  28
BRANCH  27  30
ATOM     30  CB  PHE B   1       2.973  85.791  59.854  1.00  0.00     0.086 C 
BRANCH  30  31
ATOM     31  CG  PHE B   1       2.727  84.790  60.993  1.00  0.00    -0.056 A 
ATOM     32  CD1 PHE B   1       3.751  84.520  61.909  1.00  0.00     0.007 A 
ATOM     33  CE1 PHE B   1       3.572  83.558  62.897  1.00  0.00     0.001 A 
ATOM     34  CZ  PHE B   1       2.363  82.872  62.987  1.00  0.00     0.000 A 
ATOM     35  CE2 PHE B   1       1.334  83.144  62.087  1.00  0.00     0.001 A 
ATOM     36  CD2 PHE B   1       1.517  84.099  61.090  1.00  0.00     0.007 A 
ENDBRANCH  30  31
ENDBRANCH  27  30
ENDBRANCH  25  27
ENDBRANCH  22  23
ENDBRANCH  19  22
ENDBRANCH   6  18
ENDBRANCH   3   6
ENDBRANCH   1   2
BRANCH   1  37
ATOM     37  CB  GLU B   4       4.528  92.861  61.322  1.00  0.00     0.045 C 
BRANCH  37  38
ATOM     38  CG  GLU B   4       5.474  92.719  60.141  1.00  0.00     0.116 C 
BRANCH  38  39
ATOM     39  CD  GLU B   4       6.451  93.874  60.029  1.00  0.00     0.172 C 
ATOM     40  OE1 GLU B   4       7.494  93.836  60.713  1.00  0.00    -0.648 OA
ATOM     41  OE2 GLU B   4       6.171  94.815  59.258  1.00  0.00    -0.648 OA
ENDBRANCH  38  39
ENDBRANCH  37  38
ENDBRANCH   1  37
BRANCH   1  42
ATOM     42  C   GLU B   4       5.850  92.836  63.442  1.00  0.00     0.241 C 
ATOM     43  O   GLU B   4       5.423  93.821  64.044  1.00  0.00    -0.271 OA
ATOM     44  N   THR B   5       7.110  92.420  63.533  1.00  7.70    -0.344 N 
ATOM     45  H   THR B   5       7.387  91.628  63.026  1.00  0.23     0.163 HD
BRANCH  44  46
ATOM     46  CA  THR B   5       8.093  93.109  64.364  1.00  7.88     0.205 C 
BRANCH  46  47
ATOM     47  CB  THR B   5       8.340  92.324  65.654  1.00  4.05     0.146 C 
ATOM     48  CG2 THR B   5       7.220  92.462  66.662  1.00  3.72     0.042 C 
BRANCH  47  49
ATOM     49  OG1 THR B   5       8.502  90.944  65.377  1.00  7.31    -0.393 OA
ATOM     50  HG1 THR B   5       8.137  90.747  64.512  1.00  0.23     0.210 HD
ENDBRANCH  47  49
ENDBRANCH  46  47
BRANCH  46  51
ATOM     51  C   THR B   5       9.404  93.292  63.607  1.00  7.05     0.243 C 
ATOM     52  N   TRP B   6       9.889  94.528  63.560  1.00  0.00    -0.346 N 
ATOM     53  H   TRP B   6       9.398  95.252  64.004  1.00  0.23     0.163 HD
ATOM     54  O   THR B   5       9.962  92.334  63.073  1.00  6.06    -0.271 OA
BRANCH  52  55
ATOM     55  CA  TRP B   6      11.131  94.835  62.864  1.00  0.00     0.181 C 
BRANCH  55  56
ATOM     56  CB  TRP B   6      11.189  96.323  62.518  1.00  0.00     0.075 C 
BRANCH  56  57
ATOM     57  CG  TRP B   6      11.926  96.599  61.243  1.00  0.00    -0.028 A 
ATOM     58  CD2 TRP B   6      11.688  97.679  60.333  1.00  0.00    -0.002 A 
ATOM     59  CE2 TRP B   6      12.615  97.549  59.281  1.00  0.00     0.042 A 
ATOM     60  CE3 TRP B   6      10.781  98.742  60.305  1.00  0.00     0.014 A 
ATOM     61  CZ2 TRP B   6      12.660  98.444  58.215  1.00  0.00     0.030 A 
ATOM     62  NE1 TRP B   6      13.380  96.442  59.541  1.00  0.00    -0.365 N 
ATOM     63  CH2 TRP B   6      11.761  99.475  58.212  1.00  0.00     0.002 A 
ATOM     64  CZ3 TRP B   6      10.828  99.630  59.245  1.00  0.00     0.001 A 
ATOM     65  HE1 TRP B   6      14.109  96.107  58.976  1.00  0.23     0.165 HD
ATOM     66  CD1 TRP B   6      12.959  95.877  60.720  1.00  0.00     0.096 A 
ENDBRANCH  56  57
ENDBRANCH  55  56
BRANCH  55  67
ATOM     67  C   TRP B   6      12.340  94.444  63.708  1.00  0.00     0.241 C 
ATOM     68  N   VAL B   7      12.478  93.147  63.966  1.00  6.11    -0.344 N 
ATOM     69  H   VAL B   7      11.817  92.517  63.612  1.00  0.23     0.163 HD
ATOM     70  O   TRP B   6      13.126  95.298  64.118  1.00  0.00    -0.271 OA
BRANCH  68  71
ATOM     71  CA  VAL B   7      13.587  92.639  64.764  1.00  5.65     0.189 C 
BRANCH  71  72
ATOM     72  CB  VAL B   7      13.152  91.431  65.617  1.00  1.15     0.010 C 
ATOM     73  CG1 VAL B   7      13.427  90.129  64.878  1.00  4.96     0.012 C 
ATOM     74  CG2 VAL B   7      13.855  91.444  66.966  1.00  9.83     0.012 C 
ENDBRANCH  71  72
BRANCH  71  75
ATOM     75  C   VAL B   7      14.760  92.228  63.879  1.00  4.44     0.197 C 
ATOM     76  OXT VAL B   7      14.546  92.040  62.664  1.00  0.00    -0.646 OA
ATOM     77  O   VAL B   7      15.882  92.099  64.410  1.00  0.00    -0.646 OA
ENDBRANCH  71  75
ENDBRANCH  68  71
ENDBRANCH  55  67
ENDBRANCH  52  55
ENDBRANCH  46  51
ENDBRANCH  44  46
ENDBRANCH   1  42
TORSDOF 26
ENDMDL
