REMARK  27 active torsions:
REMARK  status: ('A' for Active; 'I' for Inactive)
REMARK    1  A    between atoms: N_1  and  CA_2 
REMARK    2  A    between atoms: CA_2  and  CB_5 
REMARK    3  A    between atoms: CA_2  and  C_3 
REMARK       I    between atoms: C_3  and  N_18 
REMARK    4  A    between atoms: CB_5  and  CG_6 
REMARK    5  A    between atoms: CZ_11  and  OH_12 
REMARK    6  A    between atoms: CA_15  and  C_16 
REMARK    7  A    between atoms: CA_15  and  N_18 
REMARK       I    between atoms: C_16  and  N_33 
REMARK    8  A    between atoms: CA_20  and  CB_22 
REMARK    9  A    between atoms: CA_20  and  N_33 
REMARK   10  A    between atoms: CA_20  and  C_21 
REMARK       I    between atoms: C_21  and  N_42 
REMARK   11  A    between atoms: CB_22  and  CG_23 
REMARK   12  A    between atoms: CA_36  and  N_42 
REMARK   13  A    between atoms: CA_36  and  CB_38 
REMARK   14  A    between atoms: CA_36  and  C_37 
REMARK       I    between atoms: C_37  and  N_52 
REMARK   15  A    between atoms: CB_38  and  CG_39 
REMARK   16  A    between atoms: CG_39  and  CD_40 
REMARK   17  A    between atoms: CA_46  and  N_52 
REMARK   18  A    between atoms: CA_46  and  CB_48 
REMARK   19  A    between atoms: CA_46  and  C_47 
REMARK       I    between atoms: C_47  and  N_68 
REMARK   20  A    between atoms: CB_48  and  OG1_54 
REMARK   21  A    between atoms: CA_55  and  CB_57 
REMARK   22  A    between atoms: CA_55  and  N_68 
REMARK   23  A    between atoms: CA_55  and  C_56 
REMARK       I    between atoms: C_56  and  N_77 
REMARK   24  A    between atoms: CB_57  and  CG_58 
REMARK   25  A    between atoms: CA_71  and  N_77 
REMARK   26  A    between atoms: CA_71  and  CB_73 
REMARK   27  A    between atoms: CA_71  and  C_72 
ROOT
ATOM      1  CA  GLU B   4       2.935  -2.082  -1.427  1.00  0.00     0.177 C 
ENDROOT
BRANCH   1   2
ATOM      2  N   GLU B   4       2.719  -3.266  -0.598  1.00  0.00    -0.346 N 
ATOM      3  C   TRP B   3       3.738  -4.008  -0.173  1.00  0.00     0.241 C 
ATOM      4  O   TRP B   3       4.909  -3.750  -0.448  1.00  0.00    -0.271 OA
ATOM      5  H   GLU B   4       1.805  -3.516  -0.349  1.00  0.23     0.163 HD
BRANCH   3   6
ATOM      6  CA  TRP B   3       3.388  -5.218   0.688  1.00  0.00     0.181 C 
BRANCH   6   7
ATOM      7  CB  TRP B   3       2.953  -6.389  -0.205  1.00  0.00     0.075 C 
BRANCH   7   8
ATOM      8  CG  TRP B   3       1.526  -6.311  -0.663  1.00  0.00    -0.028 A 
ATOM      9  CD1 TRP B   3       0.426  -6.770   0.003  1.00  0.00     0.096 A 
ATOM     10  NE1 TRP B   3      -0.709  -6.527  -0.735  1.00  0.00    -0.365 N 
ATOM     11  CE2 TRP B   3      -0.354  -5.903  -1.902  1.00  0.00     0.042 A 
ATOM     12  HE1 TRP B   3      -1.622  -6.762  -0.467  1.00  0.23     0.165 HD
ATOM     13  CZ2 TRP B   3      -1.145  -5.461  -2.960  1.00  0.00     0.030 A 
ATOM     14  CD2 TRP B   3       1.046  -5.752  -1.892  1.00  0.00    -0.002 A 
ATOM     15  CH2 TRP B   3      -0.513  -4.862  -4.015  1.00  0.00     0.002 A 
ATOM     16  CZ3 TRP B   3       0.877  -4.699  -4.035  1.00  0.00     0.001 A 
ATOM     17  CE3 TRP B   3       1.663  -5.137  -2.986  1.00  0.00     0.014 A 
ENDBRANCH   7   8
ENDBRANCH   6   7
BRANCH   6  18
ATOM     18  N   TRP B   3       2.351  -4.888   1.662  1.00  0.00    -0.346 N 
ATOM     19  C   GLY B   2       2.027  -5.723   2.646  1.00  0.00     0.236 C 
ATOM     20  O   GLY B   2       2.568  -6.816   2.803  1.00  0.00    -0.272 OA
ATOM     21  H   TRP B   3       1.886  -4.027   1.592  1.00  0.23     0.163 HD
BRANCH  19  22
ATOM     22  CA  GLY B   2       0.937  -5.257   3.592  1.00  0.00     0.225 C 
BRANCH  22  23
ATOM     23  N   GLY B   2      -0.095  -6.259   3.790  1.00  0.00    -0.350 N 
ATOM     24  H   GLY B   2      -0.951  -6.176   3.321  1.00  0.23     0.163 HD
ATOM     25  C   TYR B   1       0.079  -7.306   4.594  1.00  0.00     0.254 C 
ATOM     26  O   TYR B   1       1.152  -7.467   5.226  1.00  0.00    -0.271 OA
BRANCH  25  27
ATOM     27  CA  TYR B   1      -1.069  -8.274   4.746  1.00  0.00     0.354 C 
BRANCH  27  28
ATOM     28  N   TYR B   1      -2.225  -7.622   5.354  1.00  0.00     0.312 N 
ATOM     29  H   TYR B   1      -1.993  -6.611   5.559  1.00  0.00     0.359 HD
ENDBRANCH  27  28
BRANCH  27  30
ATOM     30  CB  TYR B   1      -1.422  -8.825   3.333  1.00  0.00     0.086 C 
BRANCH  30  31
ATOM     31  CG  TYR B   1      -2.447  -9.963   3.275  1.00  0.00    -0.055 A 
ATOM     32  CD1 TYR B   1      -3.791  -9.698   2.994  1.00  0.00     0.010 A 
ATOM     33  CE1 TYR B   1      -4.710 -10.742   2.929  1.00  0.00     0.037 A 
ATOM     34  CZ  TYR B   1      -4.292 -12.053   3.146  1.00  0.00     0.065 A 
ATOM     35  CE2 TYR B   1      -2.955 -12.323   3.429  1.00  0.00     0.037 A 
ATOM     36  CD2 TYR B   1      -2.035 -11.281   3.494  1.00  0.00     0.010 A 
BRANCH  34  37
ATOM     37  OH  TYR B   1      -5.197 -13.074   3.079  1.00  0.00    -0.361 OA
ATOM     38  HH  TYR B   1      -4.737 -13.899   3.251  1.00  0.00     0.217 HD
ENDBRANCH  34  37
ENDBRANCH  30  31
ENDBRANCH  27  30
ENDBRANCH  25  27
ENDBRANCH  22  23
ENDBRANCH  19  22
ENDBRANCH   6  18
ENDBRANCH   3   6
ENDBRANCH   1   2
BRANCH   1  39
ATOM     39  CB  GLU B   4       1.619  -1.618  -2.053  1.00  0.00     0.045 C 
BRANCH  39  40
ATOM     40  CG  GLU B   4       0.498  -1.442  -1.042  1.00  0.00     0.116 C 
BRANCH  40  41
ATOM     41  CD  GLU B   4      -0.456  -2.621  -1.013  1.00  0.00     0.172 C 
ATOM     42  OE1 GLU B   4      -1.137  -2.858  -2.032  1.00  0.00    -0.648 OA
ATOM     43  OE2 GLU B   4      -0.521  -3.306   0.029  1.00  0.00    -0.648 OA
ENDBRANCH  40  41
ENDBRANCH  39  40
ENDBRANCH   1  39
BRANCH   1  44
ATOM     44  C   GLU B   4       3.543  -0.948  -0.607  1.00  0.00     0.241 C 
ATOM     45  O   GLU B   4       3.056  -0.622   0.476  1.00  0.00    -0.271 OA
ATOM     46  N   THR B   5       4.607  -0.349  -1.134  1.00  7.70    -0.344 N 
ATOM     47  H   THR B   5       4.944  -0.656  -2.002  1.00  0.23     0.163 HD
BRANCH  46  48
ATOM     48  CA  THR B   5       5.286   0.753  -0.459  1.00  7.88     0.205 C 
BRANCH  48  49
ATOM     49  CB  THR B   5       6.709   0.344  -0.075  1.00  4.05     0.146 C 
ATOM     50  CG2 THR B   5       7.356   1.289   0.914  1.00  3.72     0.042 C 
BRANCH  49  51
ATOM     51  OG1 THR B   5       6.720  -0.951   0.499  1.00  7.31    -0.393 OA
ATOM     52  HG1 THR B   5       6.777  -1.609  -0.197  1.00  0.23     0.210 HD
ENDBRANCH  49  51
ENDBRANCH  48  49
BRANCH  48  53
ATOM     53  C   THR B   5       5.323   1.989  -1.352  1.00  7.05     0.243 C 
ATOM     54  N   TRP B   6       4.731   3.078  -0.874  1.00  0.00    -0.346 N 
ATOM     55  H   TRP B   6       4.307   3.044   0.009  1.00  0.23     0.163 HD
ATOM     56  O   THR B   5       5.874   1.955  -2.452  1.00  6.06    -0.271 OA
BRANCH  54  57
ATOM     57  CA  TRP B   6       4.694   4.322  -1.632  1.00  0.00     0.181 C 
BRANCH  57  58
ATOM     58  CB  TRP B   6       3.466   5.144  -1.238  1.00  0.00     0.075 C 
BRANCH  58  59
ATOM     59  CG  TRP B   6       2.176   4.494  -1.635  1.00  0.00    -0.028 A 
ATOM     60  CD2 TRP B   6       1.490   4.644  -2.884  1.00  0.00    -0.002 A 
ATOM     61  CE2 TRP B   6       0.330   3.849  -2.820  1.00  0.00     0.042 A 
ATOM     62  CE3 TRP B   6       1.744   5.374  -4.048  1.00  0.00     0.014 A 
ATOM     63  CZ2 TRP B   6      -0.572   3.764  -3.877  1.00  0.00     0.030 A 
ATOM     64  NE1 TRP B   6       0.312   3.244  -1.590  1.00  0.00    -0.365 N 
ATOM     65  CH2 TRP B   6      -0.300   4.489  -5.005  1.00  0.00     0.002 A 
ATOM     66  CZ3 TRP B   6       0.846   5.288  -5.097  1.00  0.00     0.001 A 
ATOM     67  HE1 TRP B   6      -0.381   2.631  -1.266  1.00  0.23     0.165 HD
ATOM     68  CD1 TRP B   6       1.424   3.637  -0.885  1.00  0.00     0.096 A 
ENDBRANCH  58  59
ENDBRANCH  57  58
BRANCH  57  69
ATOM     69  C   TRP B   6       5.965   5.135  -1.408  1.00  0.00     0.241 C 
ATOM     70  N   VAL B   7       6.752   5.293  -2.468  1.00  6.11    -0.344 N 
ATOM     71  H   VAL B   7       6.488   4.893  -3.322  1.00  0.23     0.163 HD
ATOM     72  O   TRP B   6       6.227   5.604  -0.300  1.00  0.00    -0.271 OA
BRANCH  70  73
ATOM     73  CA  VAL B   7       7.998   6.045  -2.391  1.00  5.65     0.189 C 
BRANCH  73  74
ATOM     74  CB  VAL B   7       9.053   5.476  -3.360  1.00  1.15     0.010 C 
ATOM     75  CG1 VAL B   7       9.474   4.078  -2.930  1.00  4.96     0.012 C 
ATOM     76  CG2 VAL B   7       8.523   5.465  -4.786  1.00  9.83     0.012 C 
ENDBRANCH  73  74
BRANCH  73  77
ATOM     77  C   VAL B   7       7.772   7.520  -2.710  1.00  4.44     0.197 C 
ATOM     78  OXT VAL B   7       6.958   7.813  -3.609  1.00  0.00    -0.646 OA
ATOM     79  O   VAL B   7       8.412   8.369  -2.055  1.00  0.00    -0.646 OA
ENDBRANCH  73  77
ENDBRANCH  70  73
ENDBRANCH  57  69
ENDBRANCH  54  57
ENDBRANCH  48  53
ENDBRANCH  46  48
ENDBRANCH   1  44
TORSDOF 27
