MODEL 1
REMARK VINA RESULT:      -7.1      0.000      0.000
REMARK  26 active torsions:
REMARK  status: ('A' for Active; 'I' for Inactive)
REMARK    1  A    between atoms: N_1  and  CA_2 
REMARK    2  A    between atoms: CA_2  and  CB_5 
REMARK    3  A    between atoms: CA_2  and  C_3 
REMARK       I    between atoms: C_3  and  N_15 
REMARK    4  A    between atoms: CB_5  and  CG_6 
REMARK       I    between atoms: CG_6  and  ND2_7 
REMARK    5  A    between atoms: CA_12  and  N_15 
REMARK    6  A    between atoms: CA_12  and  C_13 
REMARK       I    between atoms: C_13  and  N_30 
REMARK    7  A    between atoms: CA_17  and  CB_19 
REMARK    8  A    between atoms: CA_17  and  C_18 
REMARK    9  A    between atoms: CA_17  and  N_30 
REMARK       I    between atoms: C_18  and  N_39 
REMARK   10  A    between atoms: CB_19  and  CG_20 
REMARK   11  A    between atoms: CA_33  and  CB_35 
REMARK   12  A    between atoms: CA_33  and  N_39 
REMARK   13  A    between atoms: CA_33  and  C_34 
REMARK       I    between atoms: C_34  and  N_49 
REMARK   14  A    between atoms: CB_35  and  CG_36 
REMARK   15  A    between atoms: CG_36  and  CD_37 
REMARK   16  A    between atoms: CA_43  and  N_49 
REMARK   17  A    between atoms: CA_43  and  CB_45 
REMARK   18  A    between atoms: CA_43  and  C_44 
REMARK       I    between atoms: C_44  and  N_65 
REMARK   19  A    between atoms: CB_45  and  OG1_51 
REMARK   20  A    between atoms: CA_52  and  CB_54 
REMARK   21  A    between atoms: CA_52  and  N_65 
REMARK   22  A    between atoms: CA_52  and  C_53 
REMARK       I    between atoms: C_53  and  N_74 
REMARK   23  A    between atoms: CB_54  and  CG_55 
REMARK   24  A    between atoms: CA_68  and  CB_70 
REMARK   25  A    between atoms: CA_68  and  C_69 
REMARK   26  A    between atoms: CA_68  and  N_74 
ROOT
ATOM      1  CA  GLU B   4       4.897  89.275  67.454  1.00  0.00     0.177 C 
ENDROOT
BRANCH   1   2
ATOM      2  CB  GLU B   4       4.494  88.026  68.240  1.00  0.00     0.045 C 
BRANCH   2   3
ATOM      3  CG  GLU B   4       5.265  87.854  69.538  1.00  0.00     0.116 C 
BRANCH   3   4
ATOM      4  CD  GLU B   4       4.456  88.251  70.758  1.00  0.00     0.172 C 
ATOM      5  OE1 GLU B   4       3.971  87.347  71.469  1.00  0.00    -0.648 OA
ATOM      6  OE2 GLU B   4       4.307  89.467  71.001  1.00  0.00    -0.648 OA
ENDBRANCH   3   4
ENDBRANCH   2   3
ENDBRANCH   1   2
BRANCH   1   7
ATOM      7  N   GLU B   4       4.537  89.133  66.045  1.00  0.00    -0.346 N 
ATOM      8  H   GLU B   4       4.270  88.254  65.706  1.00  0.23     0.163 HD
ATOM      9  C   TRP B   3       4.570  90.172  65.215  1.00  0.00     0.241 C 
ATOM     10  O   TRP B   3       4.897  91.301  65.575  1.00  0.00    -0.271 OA
BRANCH   9  11
ATOM     11  CA  TRP B   3       4.175  89.899  63.766  1.00  0.00     0.181 C 
BRANCH  11  12
ATOM     12  CB  TRP B   3       3.586  88.487  63.640  1.00  0.00     0.075 C 
BRANCH  12  13
ATOM     13  CG  TRP B   3       2.897  88.227  62.332  1.00  0.00    -0.028 A 
ATOM     14  CD1 TRP B   3       1.697  88.735  61.923  1.00  0.00     0.096 A 
ATOM     15  NE1 TRP B   3       1.388  88.264  60.668  1.00  0.00    -0.365 N 
ATOM     16  CE2 TRP B   3       2.394  87.435  60.245  1.00  0.00     0.042 A 
ATOM     17  HE1 TRP B   3       0.580  88.488  60.160  1.00  0.23     0.165 HD
ATOM     18  CZ2 TRP B   3       2.532  86.728  59.053  1.00  0.00     0.030 A 
ATOM     19  CD2 TRP B   3       3.360  87.386  61.268  1.00  0.00    -0.002 A 
ATOM     20  CH2 TRP B   3       3.657  85.966  58.896  1.00  0.00     0.002 A 
ATOM     21  CZ3 TRP B   3       4.635  85.896  59.896  1.00  0.00     0.001 A 
ATOM     22  CE3 TRP B   3       4.499  86.597  61.079  1.00  0.00     0.014 A 
ENDBRANCH  12  13
ENDBRANCH  11  12
BRANCH  11  23
ATOM     23  N   TRP B   3       5.315  90.074  62.869  1.00  0.00    -0.346 N 
ATOM     24  C   GLY B   2       6.469  89.445  63.078  1.00  0.00     0.236 C 
ATOM     25  O   GLY B   2       6.657  88.686  64.026  1.00  0.00    -0.272 OA
ATOM     26  H   TRP B   3       5.225  90.664  62.091  1.00  0.23     0.163 HD
BRANCH  24  27
ATOM     27  CA  GLY B   2       7.570  89.710  62.069  1.00  0.00     0.225 C 
BRANCH  27  28
ATOM     28  N   GLY B   2       7.059  89.908  60.724  1.00  0.00    -0.350 N 
ATOM     29  H   GLY B   2       6.626  90.754  60.488  1.00  0.23     0.163 HD
ATOM     30  C   ASN B   1       7.153  88.950  59.798  1.00  0.00     0.254 C 
ATOM     31  O   ASN B   1       7.700  87.864  60.025  1.00  0.00    -0.271 OA
BRANCH  30  32
ATOM     32  CA  ASN B   1       6.584  89.278  58.437  1.00  0.00     0.358 C 
BRANCH  32  33
ATOM     33  CB  ASN B   1       5.028  89.305  58.483  1.00  0.00     0.150 C 
BRANCH  33  34
ATOM     34  CG  ASN B   1       4.374  90.548  59.095  1.00  0.00     0.217 C 
ATOM     35  ND2 ASN B   1       3.942  91.489  58.299  1.00  0.00    -0.370 N 
ATOM     36 2HD2 ASN B   1       4.001  91.310  57.297  1.00  0.00     0.159 HD
ATOM     37 1HD2 ASN B   1       3.390  92.195  58.793  1.00  0.00     0.159 HD
ATOM     38  OD1 ASN B   1       4.222  90.678  60.300  1.00  0.00    -0.274 OA
ENDBRANCH  33  34
ENDBRANCH  32  33
BRANCH  32  39
ATOM     39  N   ASN B   1       7.025  88.308  57.439  1.00  0.00     0.312 N 
ATOM     40  H   ASN B   1       7.894  88.677  56.943  1.00  0.00     0.359 HD
ENDBRANCH  32  39
ENDBRANCH  30  32
ENDBRANCH  27  28
ENDBRANCH  24  27
ENDBRANCH  11  23
ENDBRANCH   9  11
ENDBRANCH   1   7
BRANCH   1  41
ATOM     41  C   GLU B   4       6.395  89.521  67.611  1.00  0.00     0.241 C 
ATOM     42  N   THR B   5       7.193  88.770  66.857  1.00  7.70    -0.344 N 
ATOM     43  H   THR B   5       6.794  88.110  66.252  1.00  0.23     0.163 HD
ATOM     44  O   GLU B   4       6.815  90.373  68.394  1.00  0.00    -0.271 OA
BRANCH  42  45
ATOM     45  CA  THR B   5       8.647  88.902  66.903  1.00  7.88     0.205 C 
BRANCH  45  46
ATOM     46  CB  THR B   5       9.308  87.528  66.789  1.00  4.05     0.146 C 
ATOM     47  CG2 THR B   5       8.869  86.562  67.868  1.00  3.72     0.042 C 
BRANCH  46  48
ATOM     48  OG1 THR B   5       9.015  86.934  65.537  1.00  7.31    -0.393 OA
ATOM     49  HG1 THR B   5       9.335  87.500  64.831  1.00  0.23     0.210 HD
ENDBRANCH  46  48
ENDBRANCH  45  46
BRANCH  45  50
ATOM     50  C   THR B   5       9.139  89.812  65.782  1.00  7.05     0.243 C 
ATOM     51  N   TRP B   6       8.546  90.996  65.683  1.00  0.00    -0.346 N 
ATOM     52  H   TRP B   6       7.836  91.231  66.316  1.00  0.23     0.163 HD
ATOM     53  O   THR B   5      10.036  89.446  65.023  1.00  6.06    -0.271 OA
BRANCH  51  54
ATOM     54  CA  TRP B   6       8.923  91.954  64.651  1.00  0.00     0.181 C 
BRANCH  54  55
ATOM     55  CB  TRP B   6       7.770  92.923  64.383  1.00  0.00     0.075 C 
BRANCH  55  56
ATOM     56  CG  TRP B   6       7.600  93.239  62.929  1.00  0.00    -0.028 A 
ATOM     57  CD2 TRP B   6       6.372  93.549  62.258  1.00  0.00    -0.002 A 
ATOM     58  CE2 TRP B   6       6.685  93.784  60.906  1.00  0.00     0.042 A 
ATOM     59  CE3 TRP B   6       5.041  93.648  62.670  1.00  0.00     0.014 A 
ATOM     60  CZ2 TRP B   6       5.713  94.114  59.965  1.00  0.00     0.030 A 
ATOM     61  NE1 TRP B   6       8.039  93.625  60.762  1.00  0.00    -0.365 N 
ATOM     62  CH2 TRP B   6       4.417  94.204  60.394  1.00  0.00     0.002 A 
ATOM     63  CZ3 TRP B   6       4.077  93.976  61.733  1.00  0.00     0.001 A 
ATOM     64  HE1 TRP B   6       8.539  93.728  59.925  1.00  0.23     0.165 HD
ATOM     65  CD1 TRP B   6       8.580  93.298  61.981  1.00  0.00     0.096 A 
ENDBRANCH  55  56
ENDBRANCH  54  55
BRANCH  54  66
ATOM     66  C   TRP B   6      10.175  92.726  65.056  1.00  0.00     0.241 C 
ATOM     67  O   TRP B   6      10.090  93.843  65.569  1.00  0.00    -0.271 OA
ATOM     68  N   VAL B   7      11.336  92.120  64.825  1.00  6.11    -0.344 N 
ATOM     69  H   VAL B   7      11.336  91.231  64.415  1.00  0.23     0.163 HD
BRANCH  68  70
ATOM     70  CA  VAL B   7      12.607  92.745  65.166  1.00  5.65     0.189 C 
BRANCH  70  71
ATOM     71  CB  VAL B   7      13.658  91.690  65.563  1.00  1.15     0.010 C 
ATOM     72  CG1 VAL B   7      13.767  91.588  67.078  1.00  4.96     0.012 C 
ATOM     73  CG2 VAL B   7      13.319  90.338  64.954  1.00  9.83     0.012 C 
ENDBRANCH  70  71
BRANCH  70  74
ATOM     74  C   VAL B   7      13.145  93.572  64.002  1.00  4.44     0.197 C 
ATOM     75  OXT VAL B   7      13.044  94.814  64.061  1.00  0.00    -0.646 OA
ATOM     76  O   VAL B   7      13.665  92.967  63.041  1.00  0.00    -0.646 OA
ENDBRANCH  70  74
ENDBRANCH  68  70
ENDBRANCH  54  66
ENDBRANCH  51  54
ENDBRANCH  45  50
ENDBRANCH  42  45
ENDBRANCH   1  41
TORSDOF 26
ENDMDL
MODEL 2
REMARK VINA RESULT:      -7.1      2.852      5.188
REMARK  26 active torsions:
REMARK  status: ('A' for Active; 'I' for Inactive)
REMARK    1  A    between atoms: N_1  and  CA_2 
REMARK    2  A    between atoms: CA_2  and  CB_5 
REMARK    3  A    between atoms: CA_2  and  C_3 
REMARK       I    between atoms: C_3  and  N_15 
REMARK    4  A    between atoms: CB_5  and  CG_6 
REMARK       I    between atoms: CG_6  and  ND2_7 
REMARK    5  A    between atoms: CA_12  and  N_15 
REMARK    6  A    between atoms: CA_12  and  C_13 
REMARK       I    between atoms: C_13  and  N_30 
REMARK    7  A    between atoms: CA_17  and  CB_19 
REMARK    8  A    between atoms: CA_17  and  C_18 
REMARK    9  A    between atoms: CA_17  and  N_30 
REMARK       I    between atoms: C_18  and  N_39 
REMARK   10  A    between atoms: CB_19  and  CG_20 
REMARK   11  A    between atoms: CA_33  and  CB_35 
REMARK   12  A    between atoms: CA_33  and  N_39 
REMARK   13  A    between atoms: CA_33  and  C_34 
REMARK       I    between atoms: C_34  and  N_49 
REMARK   14  A    between atoms: CB_35  and  CG_36 
REMARK   15  A    between atoms: CG_36  and  CD_37 
REMARK   16  A    between atoms: CA_43  and  N_49 
REMARK   17  A    between atoms: CA_43  and  CB_45 
REMARK   18  A    between atoms: CA_43  and  C_44 
REMARK       I    between atoms: C_44  and  N_65 
REMARK   19  A    between atoms: CB_45  and  OG1_51 
REMARK   20  A    between atoms: CA_52  and  CB_54 
REMARK   21  A    between atoms: CA_52  and  N_65 
REMARK   22  A    between atoms: CA_52  and  C_53 
REMARK       I    between atoms: C_53  and  N_74 
REMARK   23  A    between atoms: CB_54  and  CG_55 
REMARK   24  A    between atoms: CA_68  and  CB_70 
REMARK   25  A    between atoms: CA_68  and  C_69 
REMARK   26  A    between atoms: CA_68  and  N_74 
ROOT
ATOM      1  CA  GLU B   4       4.423  89.869  64.238  1.00  0.00     0.177 C 
ENDROOT
BRANCH   1   2
ATOM      2  CB  GLU B   4       4.230  89.843  65.755  1.00  0.00     0.045 C 
BRANCH   2   3
ATOM      3  CG  GLU B   4       3.755  91.169  66.326  1.00  0.00     0.116 C 
BRANCH   3   4
ATOM      4  CD  GLU B   4       2.248  91.232  66.486  1.00  0.00     0.172 C 
ATOM      5  OE1 GLU B   4       1.718  92.346  66.678  1.00  0.00    -0.648 OA
ATOM      6  OE2 GLU B   4       1.599  90.167  66.419  1.00  0.00    -0.648 OA
ENDBRANCH   3   4
ENDBRANCH   2   3
ENDBRANCH   1   2
BRANCH   1   7
ATOM      7  N   GLU B   4       4.055  88.581  63.653  1.00  0.00    -0.346 N 
ATOM      8  H   GLU B   4       4.719  87.861  63.623  1.00  0.23     0.163 HD
ATOM      9  C   TRP B   3       2.839  88.369  63.157  1.00  0.00     0.241 C 
ATOM     10  O   TRP B   3       1.959  89.229  63.162  1.00  0.00    -0.271 OA
BRANCH   9  11
ATOM     11  CA  TRP B   3       2.573  86.986  62.570  1.00  0.00     0.181 C 
BRANCH  11  12
ATOM     12  CB  TRP B   3       1.783  86.133  63.574  1.00  0.00     0.075 C 
BRANCH  12  13
ATOM     13  CG  TRP B   3       1.239  84.859  62.997  1.00  0.00    -0.028 A 
ATOM     14  CD1 TRP B   3       0.123  84.722  62.222  1.00  0.00     0.096 A 
ATOM     15  NE1 TRP B   3      -0.062  83.400  61.890  1.00  0.00    -0.365 N 
ATOM     16  CE2 TRP B   3       0.941  82.656  62.455  1.00  0.00     0.042 A 
ATOM     17  HE1 TRP B   3      -0.793  83.050  61.339  1.00  0.23     0.165 HD
ATOM     18  CZ2 TRP B   3       1.179  81.285  62.403  1.00  0.00     0.030 A 
ATOM     19  CD2 TRP B   3       1.778  83.541  63.161  1.00  0.00    -0.002 A 
ATOM     20  CH2 TRP B   3       2.273  80.807  63.071  1.00  0.00     0.002 A 
ATOM     21  CZ3 TRP B   3       3.123  81.662  63.783  1.00  0.00     0.001 A 
ATOM     22  CE3 TRP B   3       2.888  83.022  63.835  1.00  0.00     0.014 A 
ENDBRANCH  12  13
ENDBRANCH  11  12
BRANCH  11  23
ATOM     23  N   TRP B   3       3.821  86.328  62.191  1.00  0.00    -0.346 N 
ATOM     24  C   GLY B   2       3.945  85.684  61.033  1.00  0.00     0.236 C 
ATOM     25  O   GLY B   2       3.033  85.598  60.212  1.00  0.00    -0.272 OA
ATOM     26  H   TRP B   3       4.587  86.366  62.802  1.00  0.23     0.163 HD
BRANCH  24  27
ATOM     27  CA  GLY B   2       5.295  85.048  60.759  1.00  0.00     0.225 C 
BRANCH  27  28
ATOM     28  N   GLY B   2       6.264  85.999  60.244  1.00  0.00    -0.350 N 
ATOM     29  H   GLY B   2       6.856  86.475  60.862  1.00  0.23     0.163 HD
ATOM     30  C   ASN B   1       6.361  86.252  58.935  1.00  0.00     0.254 C 
ATOM     31  O   ASN B   1       5.655  85.676  58.098  1.00  0.00    -0.271 OA
BRANCH  30  32
ATOM     32  CA  ASN B   1       7.409  87.260  58.525  1.00  0.00     0.358 C 
BRANCH  32  33
ATOM     33  CB  ASN B   1       7.735  88.225  59.702  1.00  0.00     0.150 C 
BRANCH  33  34
ATOM     34  CG  ASN B   1       6.648  89.231  60.095  1.00  0.00     0.217 C 
ATOM     35  ND2 ASN B   1       6.645  90.409  59.531  1.00  0.00    -0.370 N 
ATOM     36 2HD2 ASN B   1       7.334  90.571  58.798  1.00  0.00     0.159 HD
ATOM     37 1HD2 ASN B   1       5.798  90.941  59.746  1.00  0.00     0.159 HD
ATOM     38  OD1 ASN B   1       5.770  88.960  60.902  1.00  0.00    -0.274 OA
ENDBRANCH  33  34
ENDBRANCH  32  33
BRANCH  32  39
ATOM     39  N   ASN B   1       6.964  88.034  57.370  1.00  0.00     0.312 N 
ATOM     40  H   ASN B   1       6.931  87.404  56.510  1.00  0.00     0.359 HD
ENDBRANCH  32  39
ENDBRANCH  30  32
ENDBRANCH  27  28
ENDBRANCH  24  27
ENDBRANCH  11  23
ENDBRANCH   9  11
ENDBRANCH   1   7
BRANCH   1  41
ATOM     41  C   GLU B   4       5.870  90.221  63.909  1.00  0.00     0.241 C 
ATOM     42  N   THR B   5       6.057  91.334  63.205  1.00  7.70    -0.344 N 
ATOM     43  H   THR B   5       5.276  91.862  62.935  1.00  0.23     0.163 HD
ATOM     44  O   GLU B   4       6.796  89.503  64.289  1.00  0.00    -0.271 OA
BRANCH  42  45
ATOM     45  CA  THR B   5       7.389  91.792  62.823  1.00  7.88     0.205 C 
BRANCH  45  46
ATOM     46  CB  THR B   5       7.295  92.806  61.682  1.00  4.05     0.146 C 
ATOM     47  CG2 THR B   5       6.034  93.641  61.726  1.00  3.72     0.042 C 
BRANCH  46  48
ATOM     48  OG1 THR B   5       8.398  93.694  61.709  1.00  7.31    -0.393 OA
ATOM     49  HG1 THR B   5       8.113  94.568  61.433  1.00  0.23     0.210 HD
ENDBRANCH  46  48
ENDBRANCH  45  46
BRANCH  45  50
ATOM     50  C   THR B   5       8.105  92.417  64.017  1.00  7.05     0.243 C 
ATOM     51  N   TRP B   6       9.392  92.120  64.152  1.00  0.00    -0.346 N 
ATOM     52  H   TRP B   6       9.819  91.528  63.498  1.00  0.23     0.163 HD
ATOM     53  O   THR B   5       7.501  93.151  64.799  1.00  6.06    -0.271 OA
BRANCH  51  54
ATOM     54  CA  TRP B   6      10.187  92.651  65.253  1.00  0.00     0.181 C 
BRANCH  54  55
ATOM     55  CB  TRP B   6      11.047  91.544  65.864  1.00  0.00     0.075 C 
BRANCH  55  56
ATOM     56  CG  TRP B   6      10.281  90.283  66.121  1.00  0.00    -0.028 A 
ATOM     57  CD2 TRP B   6       9.597  89.926  67.329  1.00  0.00    -0.002 A 
ATOM     58  CE2 TRP B   6       9.013  88.663  67.119  1.00  0.00     0.042 A 
ATOM     59  CE3 TRP B   6       9.425  90.552  68.566  1.00  0.00     0.014 A 
ATOM     60  CZ2 TRP B   6       8.268  88.016  68.101  1.00  0.00     0.030 A 
ATOM     61  NE1 TRP B   6       9.327  88.270  65.844  1.00  0.00    -0.365 N 
ATOM     62  CH2 TRP B   6       8.114  88.651  69.304  1.00  0.00     0.002 A 
ATOM     63  CZ3 TRP B   6       8.684  89.908  69.540  1.00  0.00     0.001 A 
ATOM     64  HE1 TRP B   6       9.053  87.428  65.422  1.00  0.23     0.165 HD
ATOM     65  CD1 TRP B   6      10.088  89.248  65.252  1.00  0.00     0.096 A 
ENDBRANCH  55  56
ENDBRANCH  54  55
BRANCH  54  66
ATOM     66  C   TRP B   6      11.068  93.804  64.783  1.00  0.00     0.241 C 
ATOM     67  O   TRP B   6      10.981  94.917  65.303  1.00  0.00    -0.271 OA
ATOM     68  N   VAL B   7      11.919  93.526  63.800  1.00  6.11    -0.344 N 
ATOM     69  H   VAL B   7      11.940  92.619  63.430  1.00  0.23     0.163 HD
BRANCH  68  70
ATOM     70  CA  VAL B   7      12.820  94.535  63.259  1.00  5.65     0.189 C 
BRANCH  70  71
ATOM     71  CB  VAL B   7      14.091  93.890  62.672  1.00  1.15     0.010 C 
ATOM     72  CG1 VAL B   7      15.336  94.602  63.182  1.00  4.96     0.012 C 
ATOM     73  CG2 VAL B   7      14.144  92.407  63.005  1.00  9.83     0.012 C 
ENDBRANCH  70  71
BRANCH  70  74
ATOM     74  C   VAL B   7      12.135  95.363  62.176  1.00  4.44     0.197 C 
ATOM     75  OXT VAL B   7      12.805  96.233  61.584  1.00  0.00    -0.646 OA
ATOM     76  O   VAL B   7      10.933  95.131  61.930  1.00  0.00    -0.646 OA
ENDBRANCH  70  74
ENDBRANCH  68  70
ENDBRANCH  54  66
ENDBRANCH  51  54
ENDBRANCH  45  50
ENDBRANCH  42  45
ENDBRANCH   1  41
TORSDOF 26
ENDMDL
MODEL 3
REMARK VINA RESULT:      -7.1      2.838      5.575
REMARK  26 active torsions:
REMARK  status: ('A' for Active; 'I' for Inactive)
REMARK    1  A    between atoms: N_1  and  CA_2 
REMARK    2  A    between atoms: CA_2  and  CB_5 
REMARK    3  A    between atoms: CA_2  and  C_3 
REMARK       I    between atoms: C_3  and  N_15 
REMARK    4  A    between atoms: CB_5  and  CG_6 
REMARK       I    between atoms: CG_6  and  ND2_7 
REMARK    5  A    between atoms: CA_12  and  N_15 
REMARK    6  A    between atoms: CA_12  and  C_13 
REMARK       I    between atoms: C_13  and  N_30 
REMARK    7  A    between atoms: CA_17  and  CB_19 
REMARK    8  A    between atoms: CA_17  and  C_18 
REMARK    9  A    between atoms: CA_17  and  N_30 
REMARK       I    between atoms: C_18  and  N_39 
REMARK   10  A    between atoms: CB_19  and  CG_20 
REMARK   11  A    between atoms: CA_33  and  CB_35 
REMARK   12  A    between atoms: CA_33  and  N_39 
REMARK   13  A    between atoms: CA_33  and  C_34 
REMARK       I    between atoms: C_34  and  N_49 
REMARK   14  A    between atoms: CB_35  and  CG_36 
REMARK   15  A    between atoms: CG_36  and  CD_37 
REMARK   16  A    between atoms: CA_43  and  N_49 
REMARK   17  A    between atoms: CA_43  and  CB_45 
REMARK   18  A    between atoms: CA_43  and  C_44 
REMARK       I    between atoms: C_44  and  N_65 
REMARK   19  A    between atoms: CB_45  and  OG1_51 
REMARK   20  A    between atoms: CA_52  and  CB_54 
REMARK   21  A    between atoms: CA_52  and  N_65 
REMARK   22  A    between atoms: CA_52  and  C_53 
REMARK       I    between atoms: C_53  and  N_74 
REMARK   23  A    between atoms: CB_54  and  CG_55 
REMARK   24  A    between atoms: CA_68  and  CB_70 
REMARK   25  A    between atoms: CA_68  and  C_69 
REMARK   26  A    between atoms: CA_68  and  N_74 
ROOT
ATOM      1  CA  GLU B   4       2.878  89.904  63.186  1.00  0.00     0.177 C 
ENDROOT
BRANCH   1   2
ATOM      2  CB  GLU B   4       2.851  89.986  64.713  1.00  0.00     0.045 C 
BRANCH   2   3
ATOM      3  CG  GLU B   4       3.007  88.636  65.393  1.00  0.00     0.116 C 
BRANCH   3   4
ATOM      4  CD  GLU B   4       3.107  88.747  66.903  1.00  0.00     0.172 C 
ATOM      5  OE1 GLU B   4       2.085  89.073  67.542  1.00  0.00    -0.648 OA
ATOM      6  OE2 GLU B   4       4.206  88.509  67.444  1.00  0.00    -0.648 OA
ENDBRANCH   3   4
ENDBRANCH   2   3
ENDBRANCH   1   2
BRANCH   1   7
ATOM      7  N   GLU B   4       2.761  88.516  62.745  1.00  0.00    -0.346 N 
ATOM      8  H   GLU B   4       3.377  87.845  63.106  1.00  0.23     0.163 HD
ATOM      9  C   TRP B   3       1.838  88.147  61.861  1.00  0.00     0.241 C 
ATOM     10  O   TRP B   3       1.036  88.938  61.367  1.00  0.00    -0.271 OA
BRANCH   9  11
ATOM     11  CA  TRP B   3       1.815  86.671  61.475  1.00  0.00     0.181 C 
BRANCH  11  12
ATOM     12  CB  TRP B   3       1.583  85.806  62.722  1.00  0.00     0.075 C 
BRANCH  12  13
ATOM     13  CG  TRP B   3       1.172  84.395  62.420  1.00  0.00    -0.028 A 
ATOM     14  CD1 TRP B   3       0.113  83.996  61.656  1.00  0.00     0.096 A 
ATOM     15  NE1 TRP B   3       0.050  82.623  61.615  1.00  0.00    -0.365 N 
ATOM     16  CE2 TRP B   3       1.078  82.109  62.362  1.00  0.00     0.042 A 
ATOM     17  HE1 TRP B   3      -0.621  82.099  61.129  1.00  0.23     0.165 HD
ATOM     18  CZ2 TRP B   3       1.427  80.785  62.618  1.00  0.00     0.030 A 
ATOM     19  CD2 TRP B   3       1.804  83.196  62.885  1.00  0.00    -0.002 A 
ATOM     20  CH2 TRP B   3       2.519  80.561  63.411  1.00  0.00     0.002 A 
ATOM     21  CZ3 TRP B   3       3.260  81.620  63.947  1.00  0.00     0.001 A 
ATOM     22  CE3 TRP B   3       2.915  82.935  63.694  1.00  0.00     0.014 A 
ENDBRANCH  12  13
ENDBRANCH  11  12
BRANCH  11  23
ATOM     23  N   TRP B   3       3.047  86.286  60.792  1.00  0.00    -0.346 N 
ATOM     24  C   GLY B   2       3.119  86.220  59.465  1.00  0.00     0.236 C 
ATOM     25  O   GLY B   2       2.166  86.473  58.730  1.00  0.00    -0.272 OA
ATOM     26  H   TRP B   3       3.844  86.077  61.325  1.00  0.23     0.163 HD
BRANCH  24  27
ATOM     27  CA  GLY B   2       4.458  85.813  58.883  1.00  0.00     0.225 C 
BRANCH  27  28
ATOM     28  N   GLY B   2       5.348  86.944  58.686  1.00  0.00    -0.350 N 
ATOM     29  H   GLY B   2       5.089  87.829  59.015  1.00  0.23     0.163 HD
ATOM     30  C   ASN B   1       6.514  86.807  58.049  1.00  0.00     0.254 C 
ATOM     31  O   ASN B   1       6.907  85.716  57.621  1.00  0.00    -0.271 OA
BRANCH  30  32
ATOM     32  CA  ASN B   1       7.349  88.059  57.909  1.00  0.00     0.358 C 
BRANCH  32  33
ATOM     33  CB  ASN B   1       7.085  89.033  59.093  1.00  0.00     0.150 C 
BRANCH  33  34
ATOM     34  CG  ASN B   1       7.705  88.665  60.445  1.00  0.00     0.217 C 
ATOM     35  ND2 ASN B   1       7.815  89.590  61.361  1.00  0.00    -0.370 N 
ATOM     36 2HD2 ASN B   1       7.411  90.501  61.147  1.00  0.00     0.159 HD
ATOM     37 1HD2 ASN B   1       8.096  89.209  62.268  1.00  0.00     0.159 HD
ATOM     38  OD1 ASN B   1       8.080  87.531  60.703  1.00  0.00    -0.274 OA
ENDBRANCH  33  34
ENDBRANCH  32  33
BRANCH  32  39
ATOM     39  N   ASN B   1       7.065  88.737  56.647  1.00  0.00     0.312 N 
ATOM     40  H   ASN B   1       6.142  88.379  56.250  1.00  0.00     0.359 HD
ENDBRANCH  32  39
ENDBRANCH  30  32
ENDBRANCH  27  28
ENDBRANCH  24  27
ENDBRANCH  11  23
ENDBRANCH   9  11
ENDBRANCH   1   7
BRANCH   1  41
ATOM     41  C   GLU B   4       4.164  90.535  62.660  1.00  0.00     0.241 C 
ATOM     42  N   THR B   5       4.237  91.861  62.730  1.00  7.70    -0.344 N 
ATOM     43  H   THR B   5       3.481  92.360  63.105  1.00  0.23     0.163 HD
ATOM     44  O   GLU B   4       5.069  89.835  62.206  1.00  0.00    -0.271 OA
BRANCH  42  45
ATOM     45  CA  THR B   5       5.411  92.595  62.266  1.00  7.88     0.205 C 
BRANCH  45  46
ATOM     46  CB  THR B   5       4.987  93.890  61.571  1.00  4.05     0.146 C 
ATOM     47  CG2 THR B   5       4.330  93.660  60.228  1.00  3.72     0.042 C 
BRANCH  46  48
ATOM     48  OG1 THR B   5       4.074  94.614  62.377  1.00  7.31    -0.393 OA
ATOM     49  HG1 THR B   5       4.290  95.548  62.344  1.00  0.23     0.210 HD
ENDBRANCH  46  48
ENDBRANCH  45  46
BRANCH  45  50
ATOM     50  C   THR B   5       6.342  92.911  63.432  1.00  7.05     0.243 C 
ATOM     51  N   TRP B   6       7.548  92.354  63.389  1.00  0.00    -0.346 N 
ATOM     52  H   TRP B   6       7.783  91.779  62.631  1.00  0.23     0.163 HD
ATOM     53  O   THR B   5       5.975  93.642  64.351  1.00  6.06    -0.271 OA
BRANCH  51  54
ATOM     54  CA  TRP B   6       8.528  92.575  64.444  1.00  0.00     0.181 C 
BRANCH  54  55
ATOM     55  CB  TRP B   6       7.914  92.263  65.810  1.00  0.00     0.075 C 
BRANCH  55  56
ATOM     56  CG  TRP B   6       7.707  90.797  66.036  1.00  0.00    -0.028 A 
ATOM     57  CD2 TRP B   6       8.506  89.936  66.857  1.00  0.00    -0.002 A 
ATOM     58  CE2 TRP B   6       7.943  88.648  66.781  1.00  0.00     0.042 A 
ATOM     59  CE3 TRP B   6       9.642  90.130  67.648  1.00  0.00     0.014 A 
ATOM     60  CZ2 TRP B   6       8.479  87.561  67.467  1.00  0.00     0.030 A 
ATOM     61  NE1 TRP B   6       6.854  88.722  65.952  1.00  0.00    -0.365 N 
ATOM     62  CH2 TRP B   6       9.591  87.778  68.233  1.00  0.00     0.002 A 
ATOM     63  CZ3 TRP B   6      10.172  89.048  68.328  1.00  0.00     0.001 A 
ATOM     64  HE1 TRP B   6       6.266  87.974  65.714  1.00  0.23     0.165 HD
ATOM     65  CD1 TRP B   6       6.720  90.016  65.510  1.00  0.00     0.096 A 
ENDBRANCH  55  56
ENDBRANCH  54  55
BRANCH  54  66
ATOM     66  C   TRP B   6       9.772  91.721  64.220  1.00  0.00     0.241 C 
ATOM     67  O   TRP B   6       9.690  90.615  63.684  1.00  0.00    -0.271 OA
ATOM     68  N   VAL B   7      10.923  92.245  64.631  1.00  6.11    -0.344 N 
ATOM     69  H   VAL B   7      10.921  93.131  65.049  1.00  0.23     0.163 HD
BRANCH  68  70
ATOM     70  CA  VAL B   7      12.186  91.536  64.474  1.00  5.65     0.189 C 
BRANCH  70  71
ATOM     71  CB  VAL B   7      13.205  92.381  63.685  1.00  1.15     0.010 C 
ATOM     72  CG1 VAL B   7      13.056  93.856  64.030  1.00  4.96     0.012 C 
ATOM     73  CG2 VAL B   7      14.624  91.905  63.957  1.00  9.83     0.012 C 
ENDBRANCH  70  71
BRANCH  70  74
ATOM     74  C   VAL B   7      12.785  91.170  65.830  1.00  4.44     0.197 C 
ATOM     75  OXT VAL B   7      12.727  92.012  66.749  1.00  0.00    -0.646 OA
ATOM     76  O   VAL B   7      13.305  90.042  65.958  1.00  0.00    -0.646 OA
ENDBRANCH  70  74
ENDBRANCH  68  70
ENDBRANCH  54  66
ENDBRANCH  51  54
ENDBRANCH  45  50
ENDBRANCH  42  45
ENDBRANCH   1  41
TORSDOF 26
ENDMDL
MODEL 4
REMARK VINA RESULT:      -7.0      2.041      2.860
REMARK  26 active torsions:
REMARK  status: ('A' for Active; 'I' for Inactive)
REMARK    1  A    between atoms: N_1  and  CA_2 
REMARK    2  A    between atoms: CA_2  and  CB_5 
REMARK    3  A    between atoms: CA_2  and  C_3 
REMARK       I    between atoms: C_3  and  N_15 
REMARK    4  A    between atoms: CB_5  and  CG_6 
REMARK       I    between atoms: CG_6  and  ND2_7 
REMARK    5  A    between atoms: CA_12  and  N_15 
REMARK    6  A    between atoms: CA_12  and  C_13 
REMARK       I    between atoms: C_13  and  N_30 
REMARK    7  A    between atoms: CA_17  and  CB_19 
REMARK    8  A    between atoms: CA_17  and  C_18 
REMARK    9  A    between atoms: CA_17  and  N_30 
REMARK       I    between atoms: C_18  and  N_39 
REMARK   10  A    between atoms: CB_19  and  CG_20 
REMARK   11  A    between atoms: CA_33  and  CB_35 
REMARK   12  A    between atoms: CA_33  and  N_39 
REMARK   13  A    between atoms: CA_33  and  C_34 
REMARK       I    between atoms: C_34  and  N_49 
REMARK   14  A    between atoms: CB_35  and  CG_36 
REMARK   15  A    between atoms: CG_36  and  CD_37 
REMARK   16  A    between atoms: CA_43  and  N_49 
REMARK   17  A    between atoms: CA_43  and  CB_45 
REMARK   18  A    between atoms: CA_43  and  C_44 
REMARK       I    between atoms: C_44  and  N_65 
REMARK   19  A    between atoms: CB_45  and  OG1_51 
REMARK   20  A    between atoms: CA_52  and  CB_54 
REMARK   21  A    between atoms: CA_52  and  N_65 
REMARK   22  A    between atoms: CA_52  and  C_53 
REMARK       I    between atoms: C_53  and  N_74 
REMARK   23  A    between atoms: CB_54  and  CG_55 
REMARK   24  A    between atoms: CA_68  and  CB_70 
REMARK   25  A    between atoms: CA_68  and  C_69 
REMARK   26  A    between atoms: CA_68  and  N_74 
ROOT
ATOM      1  CA  GLU B   4       4.190  89.840  66.633  1.00  0.00     0.177 C 
ENDROOT
BRANCH   1   2
ATOM      2  CB  GLU B   4       3.298  89.117  67.643  1.00  0.00     0.045 C 
BRANCH   2   3
ATOM      3  CG  GLU B   4       3.040  87.662  67.287  1.00  0.00     0.116 C 
BRANCH   3   4
ATOM      4  CD  GLU B   4       3.745  86.696  68.220  1.00  0.00     0.172 C 
ATOM      5  OE1 GLU B   4       3.053  85.876  68.859  1.00  0.00    -0.648 OA
ATOM      6  OE2 GLU B   4       4.989  86.760  68.311  1.00  0.00    -0.648 OA
ENDBRANCH   3   4
ENDBRANCH   2   3
ENDBRANCH   1   2
BRANCH   1   7
ATOM      7  N   GLU B   4       4.099  89.204  65.321  1.00  0.00    -0.346 N 
ATOM      8  H   GLU B   4       4.370  88.267  65.223  1.00  0.23     0.163 HD
ATOM      9  C   TRP B   3       3.659  89.871  64.257  1.00  0.00     0.241 C 
ATOM     10  O   TRP B   3       3.304  91.047  64.310  1.00  0.00    -0.271 OA
BRANCH   9  11
ATOM     11  CA  TRP B   3       3.612  89.101  62.941  1.00  0.00     0.181 C 
BRANCH  11  12
ATOM     12  CB  TRP B   3       3.648  87.590  63.215  1.00  0.00     0.075 C 
BRANCH  12  13
ATOM     13  CG  TRP B   3       2.678  86.796  62.390  1.00  0.00    -0.028 A 
ATOM     14  CD1 TRP B   3       1.874  87.268  61.392  1.00  0.00     0.096 A 
ATOM     15  NE1 TRP B   3       1.116  86.244  60.872  1.00  0.00    -0.365 N 
ATOM     16  CE2 TRP B   3       1.422  85.085  61.535  1.00  0.00     0.042 A 
ATOM     17  HE1 TRP B   3       0.465  86.332  60.145  1.00  0.23     0.165 HD
ATOM     18  CZ2 TRP B   3       0.921  83.796  61.367  1.00  0.00     0.030 A 
ATOM     19  CD2 TRP B   3       2.401  85.395  62.499  1.00  0.00    -0.002 A 
ATOM     20  CH2 TRP B   3       1.416  82.814  62.181  1.00  0.00     0.002 A 
ATOM     21  CZ3 TRP B   3       2.387  83.091  63.150  1.00  0.00     0.001 A 
ATOM     22  CE3 TRP B   3       2.885  84.370  63.318  1.00  0.00     0.014 A 
ENDBRANCH  12  13
ENDBRANCH  11  12
BRANCH  11  23
ATOM     23  N   TRP B   3       4.706  89.499  62.059  1.00  0.00    -0.346 N 
ATOM     24  C   GLY B   2       5.978  89.286  62.385  1.00  0.00     0.236 C 
ATOM     25  O   GLY B   2       6.319  88.747  63.437  1.00  0.00    -0.272 OA
ATOM     26  H   TRP B   3       4.497  89.930  61.203  1.00  0.23     0.163 HD
BRANCH  24  27
ATOM     27  CA  GLY B   2       7.016  89.744  61.379  1.00  0.00     0.225 C 
BRANCH  27  28
ATOM     28  N   GLY B   2       7.096  88.868  60.223  1.00  0.00    -0.350 N 
ATOM     29  H   GLY B   2       7.726  88.118  60.223  1.00  0.23     0.163 HD
ATOM     30  C   ASN B   1       6.334  89.071  59.145  1.00  0.00     0.254 C 
ATOM     31  O   ASN B   1       5.509  89.990  59.084  1.00  0.00    -0.271 OA
BRANCH  30  32
ATOM     32  CA  ASN B   1       6.510  88.090  58.008  1.00  0.00     0.358 C 
BRANCH  32  33
ATOM     33  CB  ASN B   1       7.367  86.872  58.460  1.00  0.00     0.150 C 
BRANCH  33  34
ATOM     34  CG  ASN B   1       6.880  85.485  58.028  1.00  0.00     0.217 C 
ATOM     35  ND2 ASN B   1       5.927  85.399  57.139  1.00  0.00    -0.370 N 
ATOM     36 2HD2 ASN B   1       5.604  86.272  56.724  1.00  0.00     0.159 HD
ATOM     37 1HD2 ASN B   1       5.786  84.440  56.810  1.00  0.00     0.159 HD
ATOM     38  OD1 ASN B   1       7.370  84.456  58.470  1.00  0.00    -0.274 OA
ENDBRANCH  33  34
ENDBRANCH  32  33
BRANCH  32  39
ATOM     39  N   ASN B   1       7.143  88.732  56.859  1.00  0.00     0.312 N 
ATOM     40  H   ASN B   1       7.217  88.034  56.056  1.00  0.00     0.359 HD
ENDBRANCH  32  39
ENDBRANCH  30  32
ENDBRANCH  27  28
ENDBRANCH  24  27
ENDBRANCH  11  23
ENDBRANCH   9  11
ENDBRANCH   1   7
BRANCH   1  41
ATOM     41  C   GLU B   4       5.631  89.851  67.134  1.00  0.00     0.241 C 
ATOM     42  N   THR B   5       6.442  88.940  66.604  1.00  7.70    -0.344 N 
ATOM     43  H   THR B   5       6.086  88.319  65.934  1.00  0.23     0.163 HD
ATOM     44  O   GLU B   4       5.999  90.669  67.977  1.00  0.00    -0.271 OA
BRANCH  42  45
ATOM     45  CA  THR B   5       7.847  88.840  66.989  1.00  7.88     0.205 C 
BRANCH  45  46
ATOM     46  CB  THR B   5       8.381  87.439  66.688  1.00  4.05     0.146 C 
ATOM     47  CG2 THR B   5       8.851  87.272  65.260  1.00  3.72     0.042 C 
BRANCH  46  48
ATOM     48  OG1 THR B   5       9.470  87.126  67.538  1.00  7.31    -0.393 OA
ATOM     49  HG1 THR B   5       9.503  87.755  68.261  1.00  0.23     0.210 HD
ENDBRANCH  46  48
ENDBRANCH  45  46
BRANCH  45  50
ATOM     50  C   THR B   5       8.681  89.884  66.253  1.00  7.05     0.243 C 
ATOM     51  N   TRP B   6       8.339  90.128  64.992  1.00  0.00    -0.346 N 
ATOM     52  H   TRP B   6       7.585  89.642  64.598  1.00  0.23     0.163 HD
ATOM     53  O   THR B   5       9.616  90.453  66.815  1.00  6.06    -0.271 OA
BRANCH  51  54
ATOM     54  CA  TRP B   6       9.060  91.100  64.180  1.00  0.00     0.181 C 
BRANCH  54  55
ATOM     55  CB  TRP B   6       8.731  92.521  64.641  1.00  0.00     0.075 C 
BRANCH  55  56
ATOM     56  CG  TRP B   6       7.320  92.921  64.337  1.00  0.00    -0.028 A 
ATOM     57  CD2 TRP B   6       6.775  93.225  63.047  1.00  0.00    -0.002 A 
ATOM     58  CE2 TRP B   6       5.417  93.543  63.233  1.00  0.00     0.042 A 
ATOM     59  CE3 TRP B   6       7.305  93.260  61.754  1.00  0.00     0.014 A 
ATOM     60  CZ2 TRP B   6       4.582  93.889  62.174  1.00  0.00     0.030 A 
ATOM     61  NE1 TRP B   6       5.149  93.437  64.573  1.00  0.00    -0.365 N 
ATOM     62  CH2 TRP B   6       5.126  93.916  60.918  1.00  0.00     0.002 A 
ATOM     63  CZ3 TRP B   6       6.474  93.604  60.703  1.00  0.00     0.001 A 
ATOM     64  HE1 TRP B   6       4.279  93.601  64.995  1.00  0.23     0.165 HD
ATOM     65  CD1 TRP B   6       6.297  93.064  65.228  1.00  0.00     0.096 A 
ENDBRANCH  55  56
ENDBRANCH  54  55
BRANCH  54  66
ATOM     66  C   TRP B   6      10.565  90.859  64.250  1.00  0.00     0.241 C 
ATOM     67  O   TRP B   6      11.051  89.792  63.876  1.00  0.00    -0.271 OA
ATOM     68  N   VAL B   7      11.295  91.863  64.728  1.00  6.11    -0.344 N 
ATOM     69  H   VAL B   7      10.848  92.688  65.007  1.00  0.23     0.163 HD
BRANCH  68  70
ATOM     70  CA  VAL B   7      12.745  91.766  64.845  1.00  5.65     0.189 C 
BRANCH  70  71
ATOM     71  CB  VAL B   7      13.420  93.117  64.535  1.00  1.15     0.010 C 
ATOM     72  CG1 VAL B   7      14.705  92.903  63.748  1.00  4.96     0.012 C 
ATOM     73  CG2 VAL B   7      12.470  94.032  63.778  1.00  9.83     0.012 C 
ENDBRANCH  70  71
BRANCH  70  74
ATOM     74  C   VAL B   7      13.156  91.312  66.242  1.00  4.44     0.197 C 
ATOM     75  OXT VAL B   7      13.402  90.102  66.423  1.00  0.00    -0.646 OA
ATOM     76  O   VAL B   7      13.229  92.173  67.144  1.00  0.00    -0.646 OA
ENDBRANCH  70  74
ENDBRANCH  68  70
ENDBRANCH  54  66
ENDBRANCH  51  54
ENDBRANCH  45  50
ENDBRANCH  42  45
ENDBRANCH   1  41
TORSDOF 26
ENDMDL
MODEL 5
REMARK VINA RESULT:      -6.5      2.521      5.517
REMARK  26 active torsions:
REMARK  status: ('A' for Active; 'I' for Inactive)
REMARK    1  A    between atoms: N_1  and  CA_2 
REMARK    2  A    between atoms: CA_2  and  CB_5 
REMARK    3  A    between atoms: CA_2  and  C_3 
REMARK       I    between atoms: C_3  and  N_15 
REMARK    4  A    between atoms: CB_5  and  CG_6 
REMARK       I    between atoms: CG_6  and  ND2_7 
REMARK    5  A    between atoms: CA_12  and  N_15 
REMARK    6  A    between atoms: CA_12  and  C_13 
REMARK       I    between atoms: C_13  and  N_30 
REMARK    7  A    between atoms: CA_17  and  CB_19 
REMARK    8  A    between atoms: CA_17  and  C_18 
REMARK    9  A    between atoms: CA_17  and  N_30 
REMARK       I    between atoms: C_18  and  N_39 
REMARK   10  A    between atoms: CB_19  and  CG_20 
REMARK   11  A    between atoms: CA_33  and  CB_35 
REMARK   12  A    between atoms: CA_33  and  N_39 
REMARK   13  A    between atoms: CA_33  and  C_34 
REMARK       I    between atoms: C_34  and  N_49 
REMARK   14  A    between atoms: CB_35  and  CG_36 
REMARK   15  A    between atoms: CG_36  and  CD_37 
REMARK   16  A    between atoms: CA_43  and  N_49 
REMARK   17  A    between atoms: CA_43  and  CB_45 
REMARK   18  A    between atoms: CA_43  and  C_44 
REMARK       I    between atoms: C_44  and  N_65 
REMARK   19  A    between atoms: CB_45  and  OG1_51 
REMARK   20  A    between atoms: CA_52  and  CB_54 
REMARK   21  A    between atoms: CA_52  and  N_65 
REMARK   22  A    between atoms: CA_52  and  C_53 
REMARK       I    between atoms: C_53  and  N_74 
REMARK   23  A    between atoms: CB_54  and  CG_55 
REMARK   24  A    between atoms: CA_68  and  CB_70 
REMARK   25  A    between atoms: CA_68  and  C_69 
REMARK   26  A    between atoms: CA_68  and  N_74 
ROOT
ATOM      1  CA  GLU B   4       5.699  88.598  63.470  1.00  0.00     0.177 C 
ENDROOT
BRANCH   1   2
ATOM      2  CB  GLU B   4       7.044  88.118  62.922  1.00  0.00     0.045 C 
BRANCH   2   3
ATOM      3  CG  GLU B   4       8.230  88.539  63.773  1.00  0.00     0.116 C 
BRANCH   3   4
ATOM      4  CD  GLU B   4       8.288  87.808  65.100  1.00  0.00     0.172 C 
ATOM      5  OE1 GLU B   4       9.199  86.973  65.278  1.00  0.00    -0.648 OA
ATOM      6  OE2 GLU B   4       7.423  88.070  65.961  1.00  0.00    -0.648 OA
ENDBRANCH   3   4
ENDBRANCH   2   3
ENDBRANCH   1   2
BRANCH   1   7
ATOM      7  N   GLU B   4       4.609  88.187  62.589  1.00  0.00    -0.346 N 
ATOM      8  H   GLU B   4       4.768  88.134  61.623  1.00  0.23     0.163 HD
ATOM      9  C   TRP B   3       3.406  87.887  63.070  1.00  0.00     0.241 C 
ATOM     10  O   TRP B   3       3.139  87.934  64.270  1.00  0.00    -0.271 OA
BRANCH   9  11
ATOM     11  CA  TRP B   3       2.347  87.473  62.052  1.00  0.00     0.181 C 
BRANCH  11  12
ATOM     12  CB  TRP B   3       1.153  86.827  62.770  1.00  0.00     0.075 C 
BRANCH  12  13
ATOM     13  CG  TRP B   3       0.893  85.406  62.365  1.00  0.00    -0.028 A 
ATOM     14  CD1 TRP B   3      -0.062  84.963  61.496  1.00  0.00     0.096 A 
ATOM     15  NE1 TRP B   3      -0.001  83.594  61.383  1.00  0.00    -0.365 N 
ATOM     16  CE2 TRP B   3       1.005  83.127  62.187  1.00  0.00     0.042 A 
ATOM     17  HE1 TRP B   3      -0.582  83.044  60.817  1.00  0.23     0.165 HD
ATOM     18  CZ2 TRP B   3       1.447  81.825  62.407  1.00  0.00     0.030 A 
ATOM     19  CD2 TRP B   3       1.589  84.240  62.823  1.00  0.00    -0.002 A 
ATOM     20  CH2 TRP B   3       2.488  81.648  63.277  1.00  0.00     0.002 A 
ATOM     21  CZ3 TRP B   3       3.088  82.734  63.925  1.00  0.00     0.001 A 
ATOM     22  CE3 TRP B   3       2.651  84.027  63.708  1.00  0.00     0.014 A 
ENDBRANCH  12  13
ENDBRANCH  11  12
BRANCH  11  23
ATOM     23  N   TRP B   3       2.907  86.571  61.049  1.00  0.00    -0.346 N 
ATOM     24  C   GLY B   2       2.720  86.773  59.747  1.00  0.00     0.236 C 
ATOM     25  O   GLY B   2       2.072  87.719  59.302  1.00  0.00    -0.272 OA
ATOM     26  H   TRP B   3       3.438  85.800  61.343  1.00  0.23     0.163 HD
BRANCH  24  27
ATOM     27  CA  GLY B   2       3.359  85.765  58.812  1.00  0.00     0.225 C 
BRANCH  27  28
ATOM     28  N   GLY B   2       4.659  86.197  58.330  1.00  0.00    -0.350 N 
ATOM     29  H   GLY B   2       4.772  86.446  57.390  1.00  0.23     0.163 HD
ATOM     30  C   ASN B   1       5.718  86.251  59.144  1.00  0.00     0.254 C 
ATOM     31  O   ASN B   1       5.642  85.964  60.344  1.00  0.00    -0.271 OA
BRANCH  30  32
ATOM     32  CA  ASN B   1       7.014  86.716  58.523  1.00  0.00     0.358 C 
BRANCH  32  33
ATOM     33  CB  ASN B   1       7.287  88.208  58.872  1.00  0.00     0.150 C 
BRANCH  33  34
ATOM     34  CG  ASN B   1       6.070  89.137  58.943  1.00  0.00     0.217 C 
ATOM     35  ND2 ASN B   1       5.467  89.472  57.834  1.00  0.00    -0.370 N 
ATOM     36 2HD2 ASN B   1       5.801  89.035  56.977  1.00  0.00     0.159 HD
ATOM     37 1HD2 ASN B   1       4.585  89.963  58.003  1.00  0.00     0.159 HD
ATOM     38  OD1 ASN B   1       5.631  89.555  60.004  1.00  0.00    -0.274 OA
ENDBRANCH  33  34
ENDBRANCH  32  33
BRANCH  32  39
ATOM     39  N   ASN B   1       6.987  86.552  57.072  1.00  0.00     0.312 N 
ATOM     40  H   ASN B   1       6.941  85.514  56.832  1.00  0.00     0.359 HD
ENDBRANCH  32  39
ENDBRANCH  30  32
ENDBRANCH  27  28
ENDBRANCH  24  27
ENDBRANCH  11  23
ENDBRANCH   9  11
ENDBRANCH   1   7
BRANCH   1  41
ATOM     41  C   GLU B   4       5.723  90.115  63.634  1.00  0.00     0.241 C 
ATOM     42  N   THR B   5       6.206  90.808  62.607  1.00  7.70    -0.344 N 
ATOM     43  H   THR B   5       6.518  90.325  61.813  1.00  0.23     0.163 HD
ATOM     44  O   GLU B   4       5.309  90.644  64.667  1.00  0.00    -0.271 OA
BRANCH  42  45
ATOM     45  CA  THR B   5       6.284  92.266  62.628  1.00  7.88     0.205 C 
BRANCH  45  46
ATOM     46  CB  THR B   5       4.885  92.873  62.513  1.00  4.05     0.146 C 
ATOM     47  CG2 THR B   5       4.830  94.078  61.599  1.00  3.72     0.042 C 
BRANCH  46  48
ATOM     48  OG1 THR B   5       3.963  91.918  62.018  1.00  7.31    -0.393 OA
ATOM     49  HG1 THR B   5       4.355  91.450  61.277  1.00  0.23     0.210 HD
ENDBRANCH  46  48
ENDBRANCH  45  46
BRANCH  45  50
ATOM     50  C   THR B   5       6.958  92.750  63.907  1.00  7.05     0.243 C 
ATOM     51  N   TRP B   6       8.217  92.367  64.090  1.00  0.00    -0.346 N 
ATOM     52  H   TRP B   6       8.650  91.806  63.414  1.00  0.23     0.163 HD
ATOM     53  O   THR B   5       6.348  93.453  64.713  1.00  6.06    -0.271 OA
BRANCH  51  54
ATOM     54  CA  TRP B   6       8.970  92.761  65.274  1.00  0.00     0.181 C 
BRANCH  54  55
ATOM     55  CB  TRP B   6       9.574  91.528  65.949  1.00  0.00     0.075 C 
BRANCH  55  56
ATOM     56  CG  TRP B   6       8.750  91.029  67.097  1.00  0.00    -0.028 A 
ATOM     57  CD2 TRP B   6       9.106  89.991  68.019  1.00  0.00    -0.002 A 
ATOM     58  CE2 TRP B   6       8.042  89.861  68.931  1.00  0.00     0.042 A 
ATOM     59  CE3 TRP B   6      10.220  89.159  68.159  1.00  0.00     0.014 A 
ATOM     60  CZ2 TRP B   6       8.061  88.934  69.969  1.00  0.00     0.030 A 
ATOM     61  NE1 TRP B   6       7.084  90.778  68.580  1.00  0.00    -0.365 N 
ATOM     62  CH2 TRP B   6       9.164  88.132  70.084  1.00  0.00     0.002 A 
ATOM     63  CZ3 TRP B   6      10.237  88.238  69.192  1.00  0.00     0.001 A 
ATOM     64  HE1 TRP B   6       6.230  90.914  69.040  1.00  0.23     0.165 HD
ATOM     65  CD1 TRP B   6       7.518  91.474  67.478  1.00  0.00     0.096 A 
ENDBRANCH  55  56
ENDBRANCH  54  55
BRANCH  54  66
ATOM     66  C   TRP B   6      10.069  93.755  64.916  1.00  0.00     0.241 C 
ATOM     67  O   TRP B   6      10.035  94.912  65.336  1.00  0.00    -0.271 OA
ATOM     68  N   VAL B   7      11.045  93.293  64.140  1.00  6.11    -0.344 N 
ATOM     69  H   VAL B   7      11.016  92.361  63.840  1.00  0.23     0.163 HD
BRANCH  68  70
ATOM     70  CA  VAL B   7      12.159  94.137  63.726  1.00  5.65     0.189 C 
BRANCH  70  71
ATOM     71  CB  VAL B   7      13.338  93.290  63.210  1.00  1.15     0.010 C 
ATOM     72  CG1 VAL B   7      14.664  93.907  63.633  1.00  4.96     0.012 C 
ATOM     73  CG2 VAL B   7      13.228  91.856  63.705  1.00  9.83     0.012 C 
ENDBRANCH  70  71
BRANCH  70  74
ATOM     74  C   VAL B   7      11.732  95.115  62.635  1.00  4.44     0.197 C 
ATOM     75  OXT VAL B   7      10.662  94.899  62.031  1.00  0.00    -0.646 OA
ATOM     76  O   VAL B   7      12.474  96.091  62.396  1.00  0.00    -0.646 OA
ENDBRANCH  70  74
ENDBRANCH  68  70
ENDBRANCH  54  66
ENDBRANCH  51  54
ENDBRANCH  45  50
ENDBRANCH  42  45
ENDBRANCH   1  41
TORSDOF 26
ENDMDL
MODEL 6
REMARK VINA RESULT:      -6.1      3.278      7.364
REMARK  26 active torsions:
REMARK  status: ('A' for Active; 'I' for Inactive)
REMARK    1  A    between atoms: N_1  and  CA_2 
REMARK    2  A    between atoms: CA_2  and  CB_5 
REMARK    3  A    between atoms: CA_2  and  C_3 
REMARK       I    between atoms: C_3  and  N_15 
REMARK    4  A    between atoms: CB_5  and  CG_6 
REMARK       I    between atoms: CG_6  and  ND2_7 
REMARK    5  A    between atoms: CA_12  and  N_15 
REMARK    6  A    between atoms: CA_12  and  C_13 
REMARK       I    between atoms: C_13  and  N_30 
REMARK    7  A    between atoms: CA_17  and  CB_19 
REMARK    8  A    between atoms: CA_17  and  C_18 
REMARK    9  A    between atoms: CA_17  and  N_30 
REMARK       I    between atoms: C_18  and  N_39 
REMARK   10  A    between atoms: CB_19  and  CG_20 
REMARK   11  A    between atoms: CA_33  and  CB_35 
REMARK   12  A    between atoms: CA_33  and  N_39 
REMARK   13  A    between atoms: CA_33  and  C_34 
REMARK       I    between atoms: C_34  and  N_49 
REMARK   14  A    between atoms: CB_35  and  CG_36 
REMARK   15  A    between atoms: CG_36  and  CD_37 
REMARK   16  A    between atoms: CA_43  and  N_49 
REMARK   17  A    between atoms: CA_43  and  CB_45 
REMARK   18  A    between atoms: CA_43  and  C_44 
REMARK       I    between atoms: C_44  and  N_65 
REMARK   19  A    between atoms: CB_45  and  OG1_51 
REMARK   20  A    between atoms: CA_52  and  CB_54 
REMARK   21  A    between atoms: CA_52  and  N_65 
REMARK   22  A    between atoms: CA_52  and  C_53 
REMARK       I    between atoms: C_53  and  N_74 
REMARK   23  A    between atoms: CB_54  and  CG_55 
REMARK   24  A    between atoms: CA_68  and  CB_70 
REMARK   25  A    between atoms: CA_68  and  C_69 
REMARK   26  A    between atoms: CA_68  and  N_74 
ROOT
ATOM      1  CA  GLU B   4       6.384  89.246  60.773  1.00  0.00     0.177 C 
ENDROOT
BRANCH   1   2
ATOM      2  CB  GLU B   4       7.220  89.208  59.493  1.00  0.00     0.045 C 
BRANCH   2   3
ATOM      3  CG  GLU B   4       6.574  88.412  58.372  1.00  0.00     0.116 C 
BRANCH   3   4
ATOM      4  CD  GLU B   4       7.048  86.972  58.326  1.00  0.00     0.172 C 
ATOM      5  OE1 GLU B   4       7.467  86.452  59.381  1.00  0.00    -0.648 OA
ATOM      6  OE2 GLU B   4       6.999  86.365  57.236  1.00  0.00    -0.648 OA
ENDBRANCH   3   4
ENDBRANCH   2   3
ENDBRANCH   1   2
BRANCH   1   7
ATOM      7  N   GLU B   4       4.978  88.980  60.474  1.00  0.00    -0.346 N 
ATOM      8  H   GLU B   4       4.545  89.464  59.740  1.00  0.23     0.163 HD
ATOM      9  C   TRP B   3       4.275  88.099  61.181  1.00  0.00     0.241 C 
ATOM     10  O   TRP B   3       4.757  87.459  62.115  1.00  0.00    -0.271 OA
BRANCH   9  11
ATOM     11  CA  TRP B   3       2.816  87.910  60.777  1.00  0.00     0.181 C 
BRANCH  11  12
ATOM     12  CB  TRP B   3       1.965  89.062  61.330  1.00  0.00     0.075 C 
BRANCH  12  13
ATOM     13  CG  TRP B   3       1.691  88.966  62.803  1.00  0.00    -0.028 A 
ATOM     14  CD1 TRP B   3       0.742  88.195  63.411  1.00  0.00     0.096 A 
ATOM     15  NE1 TRP B   3       0.786  88.379  64.773  1.00  0.00    -0.365 N 
ATOM     16  CE2 TRP B   3       1.773  89.283  65.067  1.00  0.00     0.042 A 
ATOM     17  HE1 TRP B   3       0.205  87.933  65.425  1.00  0.23     0.165 HD
ATOM     18  CZ2 TRP B   3       2.193  89.784  66.297  1.00  0.00     0.030 A 
ATOM     19  CD2 TRP B   3       2.363  89.675  63.851  1.00  0.00    -0.002 A 
ATOM     20  CH2 TRP B   3       3.218  90.690  66.294  1.00  0.00     0.002 A 
ATOM     21  CZ3 TRP B   3       3.824  91.101  65.101  1.00  0.00     0.001 A 
ATOM     22  CE3 TRP B   3       3.408  90.604  63.880  1.00  0.00     0.014 A 
ENDBRANCH  12  13
ENDBRANCH  11  12
BRANCH  11  23
ATOM     23  N   TRP B   3       2.308  86.618  61.230  1.00  0.00    -0.346 N 
ATOM     24  C   GLY B   2       2.231  85.572  60.411  1.00  0.00     0.236 C 
ATOM     25  O   GLY B   2       2.575  85.617  59.232  1.00  0.00    -0.272 OA
ATOM     26  H   TRP B   3       2.022  86.517  62.163  1.00  0.23     0.163 HD
BRANCH  24  27
ATOM     27  CA  GLY B   2       1.690  84.287  61.010  1.00  0.00     0.225 C 
BRANCH  27  28
ATOM     28  N   GLY B   2       2.419  83.875  62.196  1.00  0.00    -0.350 N 
ATOM     29  H   GLY B   2       3.273  84.301  62.415  1.00  0.23     0.163 HD
ATOM     30  C   ASN B   1       1.954  82.912  62.997  1.00  0.00     0.254 C 
ATOM     31  O   ASN B   1       0.875  82.344  62.787  1.00  0.00    -0.271 OA
BRANCH  30  32
ATOM     32  CA  ASN B   1       2.804  82.575  64.200  1.00  0.00     0.358 C 
BRANCH  32  33
ATOM     33  CB  ASN B   1       2.992  81.035  64.326  1.00  0.00     0.150 C 
BRANCH  33  34
ATOM     34  CG  ASN B   1       3.124  80.467  65.743  1.00  0.00     0.217 C 
ATOM     35  ND2 ASN B   1       4.317  80.294  66.245  1.00  0.00    -0.370 N 
ATOM     36 2HD2 ASN B   1       5.104  80.618  65.685  1.00  0.00     0.159 HD
ATOM     37 1HD2 ASN B   1       4.291  80.059  67.240  1.00  0.00     0.159 HD
ATOM     38  OD1 ASN B   1       2.149  80.191  66.427  1.00  0.00    -0.274 OA
ENDBRANCH  33  34
ENDBRANCH  32  33
BRANCH  32  39
ATOM     39  N   ASN B   1       2.203  83.094  65.425  1.00  0.00     0.312 N 
ATOM     40  H   ASN B   1       2.965  83.266  66.151  1.00  0.00     0.359 HD
ENDBRANCH  32  39
ENDBRANCH  30  32
ENDBRANCH  27  28
ENDBRANCH  24  27
ENDBRANCH  11  23
ENDBRANCH   9  11
ENDBRANCH   1   7
BRANCH   1  41
ATOM     41  C   GLU B   4       6.548  90.600  61.456  1.00  0.00     0.241 C 
ATOM     42  N   THR B   5       6.788  91.635  60.655  1.00  7.70    -0.344 N 
ATOM     43  H   THR B   5       6.848  91.483  59.689  1.00  0.23     0.163 HD
ATOM     44  O   GLU B   4       6.455  90.704  62.679  1.00  0.00    -0.271 OA
BRANCH  42  45
ATOM     45  CA  THR B   5       6.963  92.988  61.174  1.00  7.88     0.205 C 
BRANCH  45  46
ATOM     46  CB  THR B   5       5.656  93.774  61.057  1.00  4.05     0.146 C 
ATOM     47  CG2 THR B   5       5.237  94.026  59.625  1.00  3.72     0.042 C 
BRANCH  46  48
ATOM     48  OG1 THR B   5       4.598  93.085  61.698  1.00  7.31    -0.393 OA
ATOM     49  HG1 THR B   5       3.798  93.169  61.176  1.00  0.23     0.210 HD
ENDBRANCH  46  48
ENDBRANCH  45  46
BRANCH  45  50
ATOM     50  C   THR B   5       7.419  92.951  62.629  1.00  7.05     0.243 C 
ATOM     51  N   TRP B   6       8.681  92.593  62.841  1.00  0.00    -0.346 N 
ATOM     52  H   TRP B   6       9.251  92.374  62.075  1.00  0.23     0.163 HD
ATOM     53  O   THR B   5       6.643  93.238  63.540  1.00  6.06    -0.271 OA
BRANCH  51  54
ATOM     54  CA  TRP B   6       9.236  92.515  64.186  1.00  0.00     0.181 C 
BRANCH  54  55
ATOM     55  CB  TRP B   6       9.785  91.112  64.450  1.00  0.00     0.075 C 
BRANCH  55  56
ATOM     56  CG  TRP B   6       9.861  90.779  65.909  1.00  0.00    -0.028 A 
ATOM     57  CD2 TRP B   6       8.775  90.771  66.843  1.00  0.00    -0.002 A 
ATOM     58  CE2 TRP B   6       9.304  90.395  68.093  1.00  0.00     0.042 A 
ATOM     59  CE3 TRP B   6       7.409  91.047  66.744  1.00  0.00     0.014 A 
ATOM     60  CZ2 TRP B   6       8.512  90.287  69.232  1.00  0.00     0.030 A 
ATOM     61  NE1 TRP B   6      10.648  90.184  67.925  1.00  0.00    -0.365 N 
ATOM     62  CH2 TRP B   6       7.177  90.562  69.108  1.00  0.00     0.002 A 
ATOM     63  CZ3 TRP B   6       6.624  90.939  67.878  1.00  0.00     0.001 A 
ATOM     64  HE1 TRP B   6      11.274  89.912  68.628  1.00  0.23     0.165 HD
ATOM     65  CD1 TRP B   6      10.974  90.417  66.611  1.00  0.00     0.096 A 
ENDBRANCH  55  56
ENDBRANCH  54  55
BRANCH  54  66
ATOM     66  C   TRP B   6      10.335  93.555  64.383  1.00  0.00     0.241 C 
ATOM     67  O   TRP B   6      10.124  94.579  65.034  1.00  0.00    -0.271 OA
ATOM     68  N   VAL B   7      11.507  93.281  63.820  1.00  6.11    -0.344 N 
ATOM     69  H   VAL B   7      11.611  92.448  63.316  1.00  0.23     0.163 HD
BRANCH  68  70
ATOM     70  CA  VAL B   7      12.642  94.188  63.934  1.00  5.65     0.189 C 
BRANCH  70  71
ATOM     71  CB  VAL B   7      13.976  93.416  63.918  1.00  1.15     0.010 C 
ATOM     72  CG1 VAL B   7      13.929  92.249  64.894  1.00  4.96     0.012 C 
ATOM     73  CG2 VAL B   7      14.301  92.931  62.513  1.00  9.83     0.012 C 
ENDBRANCH  70  71
BRANCH  70  74
ATOM     74  C   VAL B   7      12.645  95.211  62.802  1.00  4.44     0.197 C 
ATOM     75  OXT VAL B   7      13.533  96.088  62.800  1.00  0.00    -0.646 OA
ATOM     76  O   VAL B   7      11.759  95.124  61.927  1.00  0.00    -0.646 OA
ENDBRANCH  70  74
ENDBRANCH  68  70
ENDBRANCH  54  66
ENDBRANCH  51  54
ENDBRANCH  45  50
ENDBRANCH  42  45
ENDBRANCH   1  41
TORSDOF 26
ENDMDL
MODEL 7
REMARK VINA RESULT:      -5.5      3.263      7.304
REMARK  26 active torsions:
REMARK  status: ('A' for Active; 'I' for Inactive)
REMARK    1  A    between atoms: N_1  and  CA_2 
REMARK    2  A    between atoms: CA_2  and  CB_5 
REMARK    3  A    between atoms: CA_2  and  C_3 
REMARK       I    between atoms: C_3  and  N_15 
REMARK    4  A    between atoms: CB_5  and  CG_6 
REMARK       I    between atoms: CG_6  and  ND2_7 
REMARK    5  A    between atoms: CA_12  and  N_15 
REMARK    6  A    between atoms: CA_12  and  C_13 
REMARK       I    between atoms: C_13  and  N_30 
REMARK    7  A    between atoms: CA_17  and  CB_19 
REMARK    8  A    between atoms: CA_17  and  C_18 
REMARK    9  A    between atoms: CA_17  and  N_30 
REMARK       I    between atoms: C_18  and  N_39 
REMARK   10  A    between atoms: CB_19  and  CG_20 
REMARK   11  A    between atoms: CA_33  and  CB_35 
REMARK   12  A    between atoms: CA_33  and  N_39 
REMARK   13  A    between atoms: CA_33  and  C_34 
REMARK       I    between atoms: C_34  and  N_49 
REMARK   14  A    between atoms: CB_35  and  CG_36 
REMARK   15  A    between atoms: CG_36  and  CD_37 
REMARK   16  A    between atoms: CA_43  and  N_49 
REMARK   17  A    between atoms: CA_43  and  CB_45 
REMARK   18  A    between atoms: CA_43  and  C_44 
REMARK       I    between atoms: C_44  and  N_65 
REMARK   19  A    between atoms: CB_45  and  OG1_51 
REMARK   20  A    between atoms: CA_52  and  CB_54 
REMARK   21  A    between atoms: CA_52  and  N_65 
REMARK   22  A    between atoms: CA_52  and  C_53 
REMARK       I    between atoms: C_53  and  N_74 
REMARK   23  A    between atoms: CB_54  and  CG_55 
REMARK   24  A    between atoms: CA_68  and  CB_70 
REMARK   25  A    between atoms: CA_68  and  C_69 
REMARK   26  A    between atoms: CA_68  and  N_74 
ROOT
ATOM      1  CA  GLU B   4       6.037  88.991  60.821  1.00  0.00     0.177 C 
ENDROOT
BRANCH   1   2
ATOM      2  CB  GLU B   4       7.040  88.961  59.666  1.00  0.00     0.045 C 
BRANCH   2   3
ATOM      3  CG  GLU B   4       6.503  88.280  58.418  1.00  0.00     0.116 C 
BRANCH   3   4
ATOM      4  CD  GLU B   4       7.009  86.858  58.261  1.00  0.00     0.172 C 
ATOM      5  OE1 GLU B   4       7.444  86.269  59.272  1.00  0.00    -0.648 OA
ATOM      6  OE2 GLU B   4       6.971  86.336  57.127  1.00  0.00    -0.648 OA
ENDBRANCH   3   4
ENDBRANCH   2   3
ENDBRANCH   1   2
BRANCH   1   7
ATOM      7  N   GLU B   4       4.689  88.705  60.337  1.00  0.00    -0.346 N 
ATOM      8  H   GLU B   4       4.371  89.140  59.518  1.00  0.23     0.163 HD
ATOM      9  C   TRP B   3       3.883  87.869  60.987  1.00  0.00     0.241 C 
ATOM     10  O   TRP B   3       4.218  87.291  62.020  1.00  0.00    -0.271 OA
BRANCH   9  11
ATOM     11  CA  TRP B   3       2.497  87.652  60.386  1.00  0.00     0.181 C 
BRANCH  11  12
ATOM     12  CB  TRP B   3       1.706  88.968  60.404  1.00  0.00     0.075 C 
BRANCH  12  13
ATOM     13  CG  TRP B   3       1.050  89.304  59.097  1.00  0.00    -0.028 A 
ATOM     14  CD1 TRP B   3       0.443  90.481  58.764  1.00  0.00     0.096 A 
ATOM     15  NE1 TRP B   3      -0.050  90.413  57.482  1.00  0.00    -0.365 N 
ATOM     16  CE2 TRP B   3       0.232  89.176  56.964  1.00  0.00     0.042 A 
ATOM     17  HE1 TRP B   3      -0.524  91.134  57.017  1.00  0.23     0.165 HD
ATOM     18  CZ2 TRP B   3      -0.062  88.639  55.713  1.00  0.00     0.030 A 
ATOM     19  CD2 TRP B   3       0.922  88.450  57.953  1.00  0.00    -0.002 A 
ATOM     20  CH2 TRP B   3       0.346  87.358  55.462  1.00  0.00     0.002 A 
ATOM     21  CZ3 TRP B   3       1.032  86.610  56.426  1.00  0.00     0.001 A 
ATOM     22  CE3 TRP B   3       1.325  87.142  57.668  1.00  0.00     0.014 A 
ENDBRANCH  12  13
ENDBRANCH  11  12
BRANCH  11  23
ATOM     23  N   TRP B   3       1.777  86.597  61.094  1.00  0.00    -0.346 N 
ATOM     24  C   GLY B   2       1.835  85.327  60.700  1.00  0.00     0.236 C 
ATOM     25  O   GLY B   2       2.489  84.957  59.726  1.00  0.00    -0.272 OA
ATOM     26  H   TRP B   3       1.241  86.830  61.882  1.00  0.23     0.163 HD
BRANCH  24  27
ATOM     27  CA  GLY B   2       1.045  84.330  61.525  1.00  0.00     0.225 C 
BRANCH  27  28
ATOM     28  N   GLY B   2       1.254  84.497  62.952  1.00  0.00    -0.350 N 
ATOM     29  H   GLY B   2       0.891  85.284  63.409  1.00  0.23     0.163 HD
ATOM     30  C   ASN B   1       1.947  83.602  63.662  1.00  0.00     0.254 C 
ATOM     31  O   ASN B   1       2.420  82.580  63.151  1.00  0.00    -0.271 OA
BRANCH  30  32
ATOM     32  CA  ASN B   1       2.095  83.889  65.138  1.00  0.00     0.358 C 
BRANCH  32  33
ATOM     33  CB  ASN B   1       1.187  82.944  65.976  1.00  0.00     0.150 C 
BRANCH  33  34
ATOM     34  CG  ASN B   1       1.744  81.553  66.297  1.00  0.00     0.217 C 
ATOM     35  ND2 ASN B   1       3.003  81.307  66.056  1.00  0.00    -0.370 N 
ATOM     36 2HD2 ASN B   1       3.571  82.087  65.728  1.00  0.00     0.159 HD
ATOM     37 1HD2 ASN B   1       3.307  80.410  66.445  1.00  0.00     0.159 HD
ATOM     38  OD1 ASN B   1       1.054  80.674  66.793  1.00  0.00    -0.274 OA
ENDBRANCH  33  34
ENDBRANCH  32  33
BRANCH  32  39
ATOM     39  N   ASN B   1       1.758  85.279  65.435  1.00  0.00     0.312 N 
ATOM     40  H   ASN B   1       0.862  85.312  66.013  1.00  0.00     0.359 HD
ENDBRANCH  32  39
ENDBRANCH  30  32
ENDBRANCH  27  28
ENDBRANCH  24  27
ENDBRANCH  11  23
ENDBRANCH   9  11
ENDBRANCH   1   7
BRANCH   1  41
ATOM     41  C   GLU B   4       6.090  90.349  61.513  1.00  0.00     0.241 C 
ATOM     42  N   THR B   5       6.633  91.342  60.814  1.00  7.70    -0.344 N 
ATOM     43  H   THR B   5       6.967  91.160  59.910  1.00  0.23     0.163 HD
ATOM     44  O   GLU B   4       5.645  90.494  62.652  1.00  0.00    -0.271 OA
BRANCH  42  45
ATOM     45  CA  THR B   5       6.744  92.695  61.352  1.00  7.88     0.205 C 
BRANCH  45  46
ATOM     46  CB  THR B   5       5.463  93.483  61.075  1.00  4.05     0.146 C 
ATOM     47  CG2 THR B   5       5.025  93.423  59.628  1.00  3.72     0.042 C 
BRANCH  46  48
ATOM     48  OG1 THR B   5       4.394  92.995  61.867  1.00  7.31    -0.393 OA
ATOM     49  HG1 THR B   5       4.436  92.037  61.906  1.00  0.23     0.210 HD
ENDBRANCH  46  48
ENDBRANCH  45  46
BRANCH  45  50
ATOM     50  C   THR B   5       7.017  92.655  62.852  1.00  7.05     0.243 C 
ATOM     51  N   TRP B   6       8.089  91.972  63.238  1.00  0.00    -0.346 N 
ATOM     52  H   TRP B   6       8.646  91.533  62.561  1.00  0.23     0.163 HD
ATOM     53  O   THR B   5       6.270  93.230  63.644  1.00  6.06    -0.271 OA
BRANCH  51  54
ATOM     54  CA  TRP B   6       8.456  91.855  64.643  1.00  0.00     0.181 C 
BRANCH  54  55
ATOM     55  CB  TRP B   6       8.677  90.387  65.011  1.00  0.00     0.075 C 
BRANCH  55  56
ATOM     56  CG  TRP B   6       7.818  89.934  66.151  1.00  0.00    -0.028 A 
ATOM     57  CD2 TRP B   6       8.100  90.083  67.548  1.00  0.00    -0.002 A 
ATOM     58  CE2 TRP B   6       7.019  89.522  68.253  1.00  0.00     0.042 A 
ATOM     59  CE3 TRP B   6       9.162  90.636  68.269  1.00  0.00     0.014 A 
ATOM     60  CZ2 TRP B   6       6.970  89.499  69.645  1.00  0.00     0.030 A 
ATOM     61  NE1 TRP B   6       6.121  89.054  67.329  1.00  0.00    -0.365 N 
ATOM     62  CH2 TRP B   6       8.023  90.046  70.327  1.00  0.00     0.002 A 
ATOM     63  CZ3 TRP B   6       9.111  90.612  69.652  1.00  0.00     0.001 A 
ATOM     64  HE1 TRP B   6       5.271  88.612  67.532  1.00  0.23     0.165 HD
ATOM     65  CD1 TRP B   6       6.609  89.305  66.069  1.00  0.00     0.096 A 
ENDBRANCH  55  56
ENDBRANCH  54  55
BRANCH  54  66
ATOM     66  C   TRP B   6       9.709  92.669  64.949  1.00  0.00     0.241 C 
ATOM     67  O   TRP B   6       9.627  93.780  65.472  1.00  0.00    -0.271 OA
ATOM     68  N   VAL B   7      10.867  92.103  64.622  1.00  6.11    -0.344 N 
ATOM     69  H   VAL B   7      10.865  91.215  64.209  1.00  0.23     0.163 HD
BRANCH  68  70
ATOM     70  CA  VAL B   7      12.140  92.771  64.862  1.00  5.65     0.189 C 
BRANCH  70  71
ATOM     71  CB  VAL B   7      13.234  91.760  65.258  1.00  1.15     0.010 C 
ATOM     72  CG1 VAL B   7      13.340  91.653  66.772  1.00  4.96     0.012 C 
ATOM     73  CG2 VAL B   7      12.956  90.398  64.639  1.00  9.83     0.012 C 
ENDBRANCH  70  71
BRANCH  70  74
ATOM     74  C   VAL B   7      12.598  93.545  63.630  1.00  4.44     0.197 C 
ATOM     75  OXT VAL B   7      13.728  93.297  63.162  1.00  0.00    -0.646 OA
ATOM     76  O   VAL B   7      11.820  94.391  63.143  1.00  0.00    -0.646 OA
ENDBRANCH  70  74
ENDBRANCH  68  70
ENDBRANCH  54  66
ENDBRANCH  51  54
ENDBRANCH  45  50
ENDBRANCH  42  45
ENDBRANCH   1  41
TORSDOF 26
ENDMDL
MODEL 8
REMARK VINA RESULT:      -5.4      2.501      6.992
REMARK  26 active torsions:
REMARK  status: ('A' for Active; 'I' for Inactive)
REMARK    1  A    between atoms: N_1  and  CA_2 
REMARK    2  A    between atoms: CA_2  and  CB_5 
REMARK    3  A    between atoms: CA_2  and  C_3 
REMARK       I    between atoms: C_3  and  N_15 
REMARK    4  A    between atoms: CB_5  and  CG_6 
REMARK       I    between atoms: CG_6  and  ND2_7 
REMARK    5  A    between atoms: CA_12  and  N_15 
REMARK    6  A    between atoms: CA_12  and  C_13 
REMARK       I    between atoms: C_13  and  N_30 
REMARK    7  A    between atoms: CA_17  and  CB_19 
REMARK    8  A    between atoms: CA_17  and  C_18 
REMARK    9  A    between atoms: CA_17  and  N_30 
REMARK       I    between atoms: C_18  and  N_39 
REMARK   10  A    between atoms: CB_19  and  CG_20 
REMARK   11  A    between atoms: CA_33  and  CB_35 
REMARK   12  A    between atoms: CA_33  and  N_39 
REMARK   13  A    between atoms: CA_33  and  C_34 
REMARK       I    between atoms: C_34  and  N_49 
REMARK   14  A    between atoms: CB_35  and  CG_36 
REMARK   15  A    between atoms: CG_36  and  CD_37 
REMARK   16  A    between atoms: CA_43  and  N_49 
REMARK   17  A    between atoms: CA_43  and  CB_45 
REMARK   18  A    between atoms: CA_43  and  C_44 
REMARK       I    between atoms: C_44  and  N_65 
REMARK   19  A    between atoms: CB_45  and  OG1_51 
REMARK   20  A    between atoms: CA_52  and  CB_54 
REMARK   21  A    between atoms: CA_52  and  N_65 
REMARK   22  A    between atoms: CA_52  and  C_53 
REMARK       I    between atoms: C_53  and  N_74 
REMARK   23  A    between atoms: CB_54  and  CG_55 
REMARK   24  A    between atoms: CA_68  and  CB_70 
REMARK   25  A    between atoms: CA_68  and  C_69 
REMARK   26  A    between atoms: CA_68  and  N_74 
ROOT
ATOM      1  CA  GLU B   4       6.271  88.852  61.650  1.00  0.00     0.177 C 
ENDROOT
BRANCH   1   2
ATOM      2  CB  GLU B   4       7.044  88.669  60.344  1.00  0.00     0.045 C 
BRANCH   2   3
ATOM      3  CG  GLU B   4       7.848  87.380  60.293  1.00  0.00     0.116 C 
BRANCH   3   4
ATOM      4  CD  GLU B   4       7.315  86.397  59.268  1.00  0.00     0.172 C 
ATOM      5  OE1 GLU B   4       7.157  86.791  58.094  1.00  0.00    -0.648 OA
ATOM      6  OE2 GLU B   4       7.057  85.233  59.641  1.00  0.00    -0.648 OA
ENDBRANCH   3   4
ENDBRANCH   2   3
ENDBRANCH   1   2
BRANCH   1   7
ATOM      7  N   GLU B   4       4.845  88.612  61.441  1.00  0.00    -0.346 N 
ATOM      8  H   GLU B   4       4.276  89.348  61.132  1.00  0.23     0.163 HD
ATOM      9  C   TRP B   3       4.304  87.417  61.663  1.00  0.00     0.241 C 
ATOM     10  O   TRP B   3       4.961  86.452  62.051  1.00  0.00    -0.271 OA
BRANCH   9  11
ATOM     11  CA  TRP B   3       2.805  87.289  61.411  1.00  0.00     0.181 C 
BRANCH  11  12
ATOM     12  CB  TRP B   3       2.393  88.181  60.231  1.00  0.00     0.075 C 
BRANCH  12  13
ATOM     13  CG  TRP B   3       2.128  87.429  58.959  1.00  0.00    -0.028 A 
ATOM     14  CD1 TRP B   3       2.601  86.193  58.626  1.00  0.00     0.096 A 
ATOM     15  NE1 TRP B   3       2.150  85.836  57.376  1.00  0.00    -0.365 N 
ATOM     16  CE2 TRP B   3       1.373  86.849  56.878  1.00  0.00     0.042 A 
ATOM     17  HE1 TRP B   3       2.353  84.993  56.918  1.00  0.23     0.165 HD
ATOM     18  CZ2 TRP B   3       0.702  86.951  55.662  1.00  0.00     0.030 A 
ATOM     19  CD2 TRP B   3       1.338  87.870  57.848  1.00  0.00    -0.002 A 
ATOM     20  CH2 TRP B   3      -0.010  88.095  55.427  1.00  0.00     0.002 A 
ATOM     21  CZ3 TRP B   3      -0.063  89.128  56.370  1.00  0.00     0.001 A 
ATOM     22  CE3 TRP B   3       0.603  89.028  57.577  1.00  0.00     0.014 A 
ENDBRANCH  12  13
ENDBRANCH  11  12
BRANCH  11  23
ATOM     23  N   TRP B   3       2.040  87.620  62.610  1.00  0.00    -0.346 N 
ATOM     24  C   GLY B   2       0.905  86.993  62.909  1.00  0.00     0.236 C 
ATOM     25  O   GLY B   2       0.425  86.105  62.207  1.00  0.00    -0.272 OA
ATOM     26  H   TRP B   3       2.375  88.318  63.213  1.00  0.23     0.163 HD
BRANCH  24  27
ATOM     27  CA  GLY B   2       0.212  87.429  64.186  1.00  0.00     0.225 C 
BRANCH  27  28
ATOM     28  N   GLY B   2       1.127  87.536  65.308  1.00  0.00    -0.350 N 
ATOM     29  H   GLY B   2       1.833  86.867  65.426  1.00  0.23     0.163 HD
ATOM     30  C   ASN B   1       1.020  88.525  66.199  1.00  0.00     0.254 C 
ATOM     31  O   ASN B   1       0.162  89.410  66.102  1.00  0.00    -0.271 OA
BRANCH  30  32
ATOM     32  CA  ASN B   1       2.032  88.526  67.322  1.00  0.00     0.358 C 
BRANCH  32  33
ATOM     33  CB  ASN B   1       3.030  89.710  67.162  1.00  0.00     0.150 C 
BRANCH  33  34
ATOM     34  CG  ASN B   1       3.989  89.652  65.968  1.00  0.00     0.217 C 
ATOM     35  ND2 ASN B   1       4.973  90.509  65.909  1.00  0.00    -0.370 N 
ATOM     36 2HD2 ASN B   1       5.092  91.131  66.707  1.00  0.00     0.159 HD
ATOM     37 1HD2 ASN B   1       5.637  90.288  65.162  1.00  0.00     0.159 HD
ATOM     38  OD1 ASN B   1       3.877  88.817  65.083  1.00  0.00    -0.274 OA
ENDBRANCH  33  34
ENDBRANCH  32  33
BRANCH  32  39
ATOM     39  N   ASN B   1       2.772  87.267  67.358  1.00  0.00     0.312 N 
ATOM     40  H   ASN B   1       2.559  86.755  68.268  1.00  0.00     0.359 HD
ENDBRANCH  32  39
ENDBRANCH  30  32
ENDBRANCH  27  28
ENDBRANCH  24  27
ENDBRANCH  11  23
ENDBRANCH   9  11
ENDBRANCH   1   7
BRANCH   1  41
ATOM     41  C   GLU B   4       6.511  90.256  62.198  1.00  0.00     0.241 C 
ATOM     42  N   THR B   5       7.028  91.136  61.346  1.00  7.70    -0.344 N 
ATOM     43  H   THR B   5       7.227  90.851  60.430  1.00  0.23     0.163 HD
ATOM     44  O   GLU B   4       6.230  90.534  63.364  1.00  0.00    -0.271 OA
BRANCH  42  45
ATOM     45  CA  THR B   5       7.306  92.516  61.735  1.00  7.88     0.205 C 
BRANCH  45  46
ATOM     46  CB  THR B   5       6.023  93.348  61.692  1.00  4.05     0.146 C 
ATOM     47  CG2 THR B   5       5.517  93.593  60.287  1.00  3.72     0.042 C 
BRANCH  46  48
ATOM     48  OG1 THR B   5       4.987  92.709  62.415  1.00  7.31    -0.393 OA
ATOM     49  HG1 THR B   5       4.275  92.476  61.816  1.00  0.23     0.210 HD
ENDBRANCH  46  48
ENDBRANCH  45  46
BRANCH  45  50
ATOM     50  C   THR B   5       7.912  92.568  63.134  1.00  7.05     0.243 C 
ATOM     51  N   TRP B   6       8.919  91.734  63.370  1.00  0.00    -0.346 N 
ATOM     52  H   TRP B   6       9.223  91.136  62.655  1.00  0.23     0.163 HD
ATOM     53  O   THR B   5       7.475  93.346  63.981  1.00  6.06    -0.271 OA
BRANCH  51  54
ATOM     54  CA  TRP B   6       9.581  91.683  64.667  1.00  0.00     0.181 C 
BRANCH  54  55
ATOM     55  CB  TRP B   6      10.117  93.066  65.040  1.00  0.00     0.075 C 
BRANCH  55  56
ATOM     56  CG  TRP B   6      11.518  93.298  64.562  1.00  0.00    -0.028 A 
ATOM     57  CD2 TRP B   6      11.939  94.233  63.562  1.00  0.00    -0.002 A 
ATOM     58  CE2 TRP B   6      13.336  94.114  63.442  1.00  0.00     0.042 A 
ATOM     59  CE3 TRP B   6      11.269  95.158  62.757  1.00  0.00     0.014 A 
ATOM     60  CZ2 TRP B   6      14.074  94.887  62.549  1.00  0.00     0.030 A 
ATOM     61  NE1 TRP B   6      13.746  93.152  64.327  1.00  0.00    -0.365 N 
ATOM     62  CH2 TRP B   6      13.394  95.785  61.772  1.00  0.00     0.002 A 
ATOM     63  CZ3 TRP B   6      12.004  95.925  61.870  1.00  0.00     0.001 A 
ATOM     64  HE1 TRP B   6      14.671  92.857  64.462  1.00  0.23     0.165 HD
ATOM     65  CD1 TRP B   6      12.648  92.666  64.996  1.00  0.00     0.096 A 
ENDBRANCH  55  56
ENDBRANCH  54  55
BRANCH  54  66
ATOM     66  C   TRP B   6       8.628  91.181  65.746  1.00  0.00     0.241 C 
ATOM     67  O   TRP B   6       7.727  91.901  66.178  1.00  0.00    -0.271 OA
ATOM     68  N   VAL B   7       8.832  89.938  66.174  1.00  6.11    -0.344 N 
ATOM     69  H   VAL B   7       9.565  89.416  65.788  1.00  0.23     0.163 HD
BRANCH  68  70
ATOM     70  CA  VAL B   7       7.991  89.334  67.199  1.00  5.65     0.189 C 
BRANCH  70  71
ATOM     71  CB  VAL B   7       7.563  87.908  66.800  1.00  1.15     0.010 C 
ATOM     72  CG1 VAL B   7       8.773  86.988  66.726  1.00  4.96     0.012 C 
ATOM     73  CG2 VAL B   7       6.530  87.364  67.775  1.00  9.83     0.012 C 
ENDBRANCH  70  71
BRANCH  70  74
ATOM     74  C   VAL B   7       8.714  89.279  68.542  1.00  4.44     0.197 C 
ATOM     75  OXT VAL B   7       8.229  89.913  69.501  1.00  0.00    -0.646 OA
ATOM     76  O   VAL B   7       9.759  88.600  68.621  1.00  0.00    -0.646 OA
ENDBRANCH  70  74
ENDBRANCH  68  70
ENDBRANCH  54  66
ENDBRANCH  51  54
ENDBRANCH  45  50
ENDBRANCH  42  45
ENDBRANCH   1  41
TORSDOF 26
ENDMDL
