MODEL 1
REMARK VINA RESULT:      -7.2      0.000      0.000
REMARK  27 active torsions:
REMARK  status: ('A' for Active; 'I' for Inactive)
REMARK    1  A    between atoms: N_1  and  CA_2 
REMARK    2  A    between atoms: CA_2  and  CB_5 
REMARK    3  A    between atoms: CA_2  and  C_3 
REMARK       I    between atoms: C_3  and  N_18 
REMARK    4  A    between atoms: CB_5  and  CG_6 
REMARK    5  A    between atoms: CZ_11  and  OH_12 
REMARK    6  A    between atoms: CA_15  and  C_16 
REMARK    7  A    between atoms: CA_15  and  N_18 
REMARK       I    between atoms: C_16  and  N_33 
REMARK    8  A    between atoms: CA_20  and  CB_22 
REMARK    9  A    between atoms: CA_20  and  N_33 
REMARK   10  A    between atoms: CA_20  and  C_21 
REMARK       I    between atoms: C_21  and  N_42 
REMARK   11  A    between atoms: CB_22  and  CG_23 
REMARK   12  A    between atoms: CA_36  and  N_42 
REMARK   13  A    between atoms: CA_36  and  CB_38 
REMARK   14  A    between atoms: CA_36  and  C_37 
REMARK       I    between atoms: C_37  and  N_52 
REMARK   15  A    between atoms: CB_38  and  CG_39 
REMARK   16  A    between atoms: CG_39  and  CD_40 
REMARK   17  A    between atoms: CA_46  and  N_52 
REMARK   18  A    between atoms: CA_46  and  CB_48 
REMARK   19  A    between atoms: CA_46  and  C_47 
REMARK       I    between atoms: C_47  and  N_68 
REMARK   20  A    between atoms: CB_48  and  OG1_54 
REMARK   21  A    between atoms: CA_55  and  CB_57 
REMARK   22  A    between atoms: CA_55  and  N_68 
REMARK   23  A    between atoms: CA_55  and  C_56 
REMARK       I    between atoms: C_56  and  N_77 
REMARK   24  A    between atoms: CB_57  and  CG_58 
REMARK   25  A    between atoms: CA_71  and  N_77 
REMARK   26  A    between atoms: CA_71  and  CB_73 
REMARK   27  A    between atoms: CA_71  and  C_72 
ROOT
ATOM      1  CA  GLU B   4       2.133  89.103  60.248  1.00  0.00     0.177 C 
ENDROOT
BRANCH   1   2
ATOM      2  N   GLU B   4       1.917  89.419  61.658  1.00  0.00    -0.346 N 
ATOM      3  C   TRP B   3       2.792  89.052  62.591  1.00  0.00     0.241 C 
ATOM      4  O   TRP B   3       3.821  88.431  62.331  1.00  0.00    -0.271 OA
ATOM      5  H   GLU B   4       1.113  89.914  61.920  1.00  0.23     0.163 HD
BRANCH   3   6
ATOM      6  CA  TRP B   3       2.459  89.442  64.028  1.00  0.00     0.181 C 
BRANCH   6   7
ATOM      7  CB  TRP B   3       3.252  90.694  64.429  1.00  0.00     0.075 C 
BRANCH   7   8
ATOM      8  CG  TRP B   3       4.492  90.404  65.223  1.00  0.00    -0.028 A 
ATOM      9  CD1 TRP B   3       4.887  89.191  65.711  1.00  0.00     0.096 A 
ATOM     10  NE1 TRP B   3       6.074  89.321  66.395  1.00  0.00    -0.365 N 
ATOM     11  CE2 TRP B   3       6.465  90.633  66.359  1.00  0.00     0.042 A 
ATOM     12  HE1 TRP B   3       6.559  88.591  66.834  1.00  0.23     0.165 HD
ATOM     13  CZ2 TRP B   3       7.589  91.249  66.904  1.00  0.00     0.030 A 
ATOM     14  CD2 TRP B   3       5.493  91.345  65.631  1.00  0.00    -0.002 A 
ATOM     15  CH2 TRP B   3       7.729  92.596  66.710  1.00  0.00     0.002 A 
ATOM     16  CZ3 TRP B   3       6.778  93.332  65.993  1.00  0.00     0.001 A 
ATOM     17  CE3 TRP B   3       5.663  92.721  65.451  1.00  0.00     0.014 A 
ENDBRANCH   7   8
ENDBRANCH   6   7
BRANCH   6  18
ATOM     18  N   TRP B   3       2.723  88.338  64.947  1.00  0.00    -0.346 N 
ATOM     19  C   GLY B   2       1.740  87.584  65.432  1.00  0.00     0.236 C 
ATOM     20  O   GLY B   2       0.557  87.760  65.147  1.00  0.00    -0.272 OA
ATOM     21  H   TRP B   3       3.649  88.144  65.208  1.00  0.23     0.163 HD
BRANCH  19  22
ATOM     22  CA  GLY B   2       2.150  86.467  66.372  1.00  0.00     0.225 C 
BRANCH  22  23
ATOM     23  N   GLY B   2       3.059  86.918  67.411  1.00  0.00    -0.350 N 
ATOM     24  H   GLY B   2       3.375  87.845  67.413  1.00  0.23     0.163 HD
ATOM     25  C   TYR B   1       3.486  86.110  68.380  1.00  0.00     0.254 C 
ATOM     26  O   TYR B   1       3.120  84.910  68.430  1.00  0.00    -0.271 OA
BRANCH  25  27
ATOM     27  CA  TYR B   1       4.449  86.676  69.394  1.00  0.00     0.354 C 
BRANCH  27  28
ATOM     28  N   TYR B   1       3.891  86.602  70.742  1.00  0.00     0.312 N 
ATOM     29  H   TYR B   1       3.290  85.737  70.828  1.00  0.00     0.359 HD
ENDBRANCH  27  28
BRANCH  27  30
ATOM     30  CB  TYR B   1       5.777  85.869  69.298  1.00  0.00     0.086 C 
BRANCH  30  31
ATOM     31  CG  TYR B   1       7.028  86.651  68.882  1.00  0.00    -0.055 A 
ATOM     32  CD1 TYR B   1       7.836  86.198  67.835  1.00  0.00     0.010 A 
ATOM     33  CE1 TYR B   1       8.962  86.925  67.456  1.00  0.00     0.037 A 
ATOM     34  CZ  TYR B   1       9.285  88.105  68.122  1.00  0.00     0.065 A 
ATOM     35  CE2 TYR B   1       8.486  88.560  69.167  1.00  0.00     0.037 A 
ATOM     36  CD2 TYR B   1       7.360  87.835  69.547  1.00  0.00     0.010 A 
BRANCH  34  37
ATOM     37  OH  TYR B   1      10.390  88.816  67.745  1.00  0.00    -0.361 OA
ATOM     38  HH  TYR B   1      10.788  89.197  68.531  1.00  0.00     0.217 HD
ENDBRANCH  34  37
ENDBRANCH  30  31
ENDBRANCH  27  30
ENDBRANCH  25  27
ENDBRANCH  22  23
ENDBRANCH  19  22
ENDBRANCH   6  18
ENDBRANCH   3   6
ENDBRANCH   1   2
BRANCH   1  39
ATOM     39  CB  GLU B   4       0.849  89.321  59.446  1.00  0.00     0.045 C 
BRANCH  39  40
ATOM     40  CG  GLU B   4       0.330  88.057  58.781  1.00  0.00     0.116 C 
BRANCH  40  41
ATOM     41  CD  GLU B   4       0.940  87.822  57.412  1.00  0.00     0.172 C 
ATOM     42  OE1 GLU B   4       1.297  86.664  57.113  1.00  0.00    -0.648 OA
ATOM     43  OE2 GLU B   4       1.060  88.797  56.641  1.00  0.00    -0.648 OA
ENDBRANCH  40  41
ENDBRANCH  39  40
ENDBRANCH   1  39
BRANCH   1  44
ATOM     44  C   GLU B   4       3.255  89.957  59.665  1.00  0.00     0.241 C 
ATOM     45  O   GLU B   4       3.811  89.635  58.614  1.00  0.00    -0.271 OA
ATOM     46  N   THR B   5       3.585  91.043  60.357  1.00  7.70    -0.344 N 
ATOM     47  H   THR B   5       3.104  91.242  61.188  1.00  0.23     0.163 HD
BRANCH  46  48
ATOM     48  CA  THR B   5       4.643  91.948  59.917  1.00  7.88     0.205 C 
BRANCH  48  49
ATOM     49  CB  THR B   5       4.388  93.360  60.445  1.00  4.05     0.146 C 
ATOM     50  CG2 THR B   5       4.479  93.460  61.952  1.00  3.72     0.042 C 
BRANCH  49  51
ATOM     51  OG1 THR B   5       5.319  94.276  59.897  1.00  7.31    -0.393 OA
ATOM     52  HG1 THR B   5       4.939  95.157  59.894  1.00  0.23     0.210 HD
ENDBRANCH  49  51
ENDBRANCH  48  49
BRANCH  48  53
ATOM     53  C   THR B   5       6.005  91.453  60.392  1.00  7.05     0.243 C 
ATOM     54  N   TRP B   6       6.040  90.228  60.904  1.00  0.00    -0.346 N 
ATOM     55  H   TRP B   6       5.212  89.706  60.954  1.00  0.23     0.163 HD
ATOM     56  O   THR B   5       7.003  92.168  60.299  1.00  6.06    -0.271 OA
BRANCH  54  57
ATOM     57  CA  TRP B   6       7.279  89.641  61.398  1.00  0.00     0.181 C 
BRANCH  57  58
ATOM     58  CB  TRP B   6       7.213  89.464  62.915  1.00  0.00     0.075 C 
BRANCH  58  59
ATOM     59  CG  TRP B   6       8.513  89.762  63.596  1.00  0.00    -0.028 A 
ATOM     60  CD2 TRP B   6       9.161  91.038  63.686  1.00  0.00    -0.002 A 
ATOM     61  CE2 TRP B   6      10.349  90.851  64.418  1.00  0.00     0.042 A 
ATOM     62  CE3 TRP B   6       8.851  92.317  63.219  1.00  0.00     0.014 A 
ATOM     63  CZ2 TRP B   6      11.225  91.897  64.692  1.00  0.00     0.030 A 
ATOM     64  NE1 TRP B   6      10.420  89.524  64.756  1.00  0.00    -0.365 N 
ATOM     65  CH2 TRP B   6      10.898  93.140  64.223  1.00  0.00     0.002 A 
ATOM     66  CZ3 TRP B   6       9.723  93.355  63.493  1.00  0.00     0.001 A 
ATOM     67  HE1 TRP B   6      11.142  89.105  65.269  1.00  0.23     0.165 HD
ATOM     68  CD1 TRP B   6       9.314  88.878  64.259  1.00  0.00     0.096 A 
ENDBRANCH  58  59
ENDBRANCH  57  58
BRANCH  57  69
ATOM     69  C   TRP B   6       7.554  88.301  60.724  1.00  0.00     0.241 C 
ATOM     70  N   VAL B   7       6.493  87.662  60.240  1.00  6.11    -0.344 N 
ATOM     71  H   VAL B   7       5.608  88.069  60.333  1.00  0.23     0.163 HD
ATOM     72  O   TRP B   6       8.700  87.855  60.648  1.00  0.00    -0.271 OA
BRANCH  70  73
ATOM     73  CA  VAL B   7       6.615  86.370  59.575  1.00  5.65     0.189 C 
BRANCH  73  74
ATOM     74  CB  VAL B   7       5.348  85.517  59.778  1.00  1.15     0.010 C 
ATOM     75  CG1 VAL B   7       5.115  85.251  61.258  1.00  4.96     0.012 C 
ATOM     76  CG2 VAL B   7       4.137  86.196  59.155  1.00  9.83     0.012 C 
ENDBRANCH  73  74
BRANCH  73  77
ATOM     77  C   VAL B   7       6.866  86.542  58.079  1.00  4.44     0.197 C 
ATOM     78  OXT VAL B   7       7.055  85.520  57.390  1.00  0.00    -0.646 OA
ATOM     79  O   VAL B   7       6.869  87.700  57.612  1.00  0.00    -0.646 OA
ENDBRANCH  73  77
ENDBRANCH  70  73
ENDBRANCH  57  69
ENDBRANCH  54  57
ENDBRANCH  48  53
ENDBRANCH  46  48
ENDBRANCH   1  44
TORSDOF 27
ENDMDL
MODEL 2
REMARK VINA RESULT:      -6.2      2.154      5.349
REMARK  27 active torsions:
REMARK  status: ('A' for Active; 'I' for Inactive)
REMARK    1  A    between atoms: N_1  and  CA_2 
REMARK    2  A    between atoms: CA_2  and  CB_5 
REMARK    3  A    between atoms: CA_2  and  C_3 
REMARK       I    between atoms: C_3  and  N_18 
REMARK    4  A    between atoms: CB_5  and  CG_6 
REMARK    5  A    between atoms: CZ_11  and  OH_12 
REMARK    6  A    between atoms: CA_15  and  C_16 
REMARK    7  A    between atoms: CA_15  and  N_18 
REMARK       I    between atoms: C_16  and  N_33 
REMARK    8  A    between atoms: CA_20  and  CB_22 
REMARK    9  A    between atoms: CA_20  and  N_33 
REMARK   10  A    between atoms: CA_20  and  C_21 
REMARK       I    between atoms: C_21  and  N_42 
REMARK   11  A    between atoms: CB_22  and  CG_23 
REMARK   12  A    between atoms: CA_36  and  N_42 
REMARK   13  A    between atoms: CA_36  and  CB_38 
REMARK   14  A    between atoms: CA_36  and  C_37 
REMARK       I    between atoms: C_37  and  N_52 
REMARK   15  A    between atoms: CB_38  and  CG_39 
REMARK   16  A    between atoms: CG_39  and  CD_40 
REMARK   17  A    between atoms: CA_46  and  N_52 
REMARK   18  A    between atoms: CA_46  and  CB_48 
REMARK   19  A    between atoms: CA_46  and  C_47 
REMARK       I    between atoms: C_47  and  N_68 
REMARK   20  A    between atoms: CB_48  and  OG1_54 
REMARK   21  A    between atoms: CA_55  and  CB_57 
REMARK   22  A    between atoms: CA_55  and  N_68 
REMARK   23  A    between atoms: CA_55  and  C_56 
REMARK       I    between atoms: C_56  and  N_77 
REMARK   24  A    between atoms: CB_57  and  CG_58 
REMARK   25  A    between atoms: CA_71  and  N_77 
REMARK   26  A    between atoms: CA_71  and  CB_73 
REMARK   27  A    between atoms: CA_71  and  C_72 
ROOT
ATOM      1  CA  GLU B   4       4.193  86.261  60.709  1.00  0.00     0.177 C 
ENDROOT
BRANCH   1   2
ATOM      2  N   GLU B   4       3.472  87.213  61.552  1.00  0.00    -0.346 N 
ATOM      3  C   TRP B   3       2.760  86.809  62.600  1.00  0.00     0.241 C 
ATOM      4  O   TRP B   3       2.663  85.625  62.921  1.00  0.00    -0.271 OA
ATOM      5  H   GLU B   4       3.517  88.169  61.341  1.00  0.23     0.163 HD
BRANCH   3   6
ATOM      6  CA  TRP B   3       2.054  87.895  63.405  1.00  0.00     0.181 C 
BRANCH   6   7
ATOM      7  CB  TRP B   3       2.485  89.282  62.906  1.00  0.00     0.075 C 
BRANCH   7   8
ATOM      8  CG  TRP B   3       2.890  90.227  64.000  1.00  0.00    -0.028 A 
ATOM      9  CD1 TRP B   3       2.216  90.469  65.163  1.00  0.00     0.096 A 
ATOM     10  NE1 TRP B   3       2.891  91.404  65.914  1.00  0.00    -0.365 N 
ATOM     11  CE2 TRP B   3       4.021  91.783  65.238  1.00  0.00     0.042 A 
ATOM     12  HE1 TRP B   3       2.608  91.740  66.790  1.00  0.23     0.165 HD
ATOM     13  CZ2 TRP B   3       5.013  92.695  65.590  1.00  0.00     0.030 A 
ATOM     14  CD2 TRP B   3       4.052  91.064  64.028  1.00  0.00    -0.002 A 
ATOM     15  CH2 TRP B   3       6.044  92.880  64.710  1.00  0.00     0.002 A 
ATOM     16  CZ3 TRP B   3       6.102  92.181  63.499  1.00  0.00     0.001 A 
ATOM     17  CE3 TRP B   3       5.118  91.275  63.148  1.00  0.00     0.014 A 
ENDBRANCH   7   8
ENDBRANCH   6   7
BRANCH   6  18
ATOM     18  N   TRP B   3       2.319  87.746  64.834  1.00  0.00    -0.346 N 
ATOM     19  C   GLY B   2       1.455  87.139  65.644  1.00  0.00     0.236 C 
ATOM     20  O   GLY B   2       0.389  86.668  65.254  1.00  0.00    -0.272 OA
ATOM     21  H   TRP B   3       3.157  88.098  65.204  1.00  0.23     0.163 HD
BRANCH  19  22
ATOM     22  CA  GLY B   2       1.854  87.047  67.104  1.00  0.00     0.225 C 
BRANCH  22  23
ATOM     23  N   GLY B   2       3.156  87.634  67.365  1.00  0.00    -0.350 N 
ATOM     24  H   GLY B   2       3.887  87.501  66.727  1.00  0.23     0.163 HD
ATOM     25  C   TYR B   1       3.400  88.362  68.453  1.00  0.00     0.254 C 
ATOM     26  O   TYR B   1       2.506  88.566  69.311  1.00  0.00    -0.271 OA
BRANCH  25  27
ATOM     27  CA  TYR B   1       4.796  88.904  68.637  1.00  0.00     0.354 C 
BRANCH  27  28
ATOM     28  N   TYR B   1       4.824  90.351  68.444  1.00  0.00     0.312 N 
ATOM     29  H   TYR B   1       5.653  90.760  68.958  1.00  0.00     0.359 HD
ENDBRANCH  27  28
BRANCH  27  30
ATOM     30  CB  TYR B   1       5.273  88.526  70.071  1.00  0.00     0.086 C 
BRANCH  30  31
ATOM     31  CG  TYR B   1       6.177  87.295  70.192  1.00  0.00    -0.055 A 
ATOM     32  CD1 TYR B   1       6.624  86.860  71.444  1.00  0.00     0.010 A 
ATOM     33  CE1 TYR B   1       7.433  85.731  71.543  1.00  0.00     0.037 A 
ATOM     34  CZ  TYR B   1       7.801  85.034  70.395  1.00  0.00     0.065 A 
ATOM     35  CE2 TYR B   1       7.362  85.465  69.145  1.00  0.00     0.037 A 
ATOM     36  CD2 TYR B   1       6.553  86.592  69.044  1.00  0.00     0.010 A 
BRANCH  34  37
ATOM     37  OH  TYR B   1       8.593  83.926  70.497  1.00  0.00    -0.361 OA
ATOM     38  HH  TYR B   1       9.493  84.211  70.673  1.00  0.00     0.217 HD
ENDBRANCH  34  37
ENDBRANCH  30  31
ENDBRANCH  27  30
ENDBRANCH  25  27
ENDBRANCH  22  23
ENDBRANCH  19  22
ENDBRANCH   6  18
ENDBRANCH   3   6
ENDBRANCH   1   2
BRANCH   1  39
ATOM     39  CB  GLU B   4       3.803  86.442  59.241  1.00  0.00     0.045 C 
BRANCH  39  40
ATOM     40  CG  GLU B   4       2.341  86.138  58.962  1.00  0.00     0.116 C 
BRANCH  40  41
ATOM     41  CD  GLU B   4       1.501  87.391  58.805  1.00  0.00     0.172 C 
ATOM     42  OE1 GLU B   4       0.295  87.263  58.508  1.00  0.00    -0.648 OA
ATOM     43  OE2 GLU B   4       2.049  88.499  58.979  1.00  0.00    -0.648 OA
ENDBRANCH  40  41
ENDBRANCH  39  40
ENDBRANCH   1  39
BRANCH   1  44
ATOM     44  C   GLU B   4       5.701  86.430  60.866  1.00  0.00     0.241 C 
ATOM     45  O   GLU B   4       6.471  85.513  60.578  1.00  0.00    -0.271 OA
ATOM     46  N   THR B   5       6.114  87.606  61.329  1.00  7.70    -0.344 N 
ATOM     47  H   THR B   5       5.449  88.294  61.541  1.00  0.23     0.163 HD
BRANCH  46  48
ATOM     48  CA  THR B   5       7.529  87.902  61.531  1.00  7.88     0.205 C 
BRANCH  48  49
ATOM     49  CB  THR B   5       8.044  88.820  60.421  1.00  4.05     0.146 C 
ATOM     50  CG2 THR B   5       7.801  88.272  59.032  1.00  3.72     0.042 C 
BRANCH  49  51
ATOM     51  OG1 THR B   5       7.423  90.091  60.495  1.00  7.31    -0.393 OA
ATOM     52  HG1 THR B   5       7.714  90.633  59.759  1.00  0.23     0.210 HD
ENDBRANCH  49  51
ENDBRANCH  48  49
BRANCH  48  53
ATOM     53  C   THR B   5       7.753  88.555  62.892  1.00  7.05     0.243 C 
ATOM     54  N   TRP B   6       8.918  89.169  63.066  1.00  0.00    -0.346 N 
ATOM     55  H   TRP B   6       9.568  89.177  62.333  1.00  0.23     0.163 HD
ATOM     56  O   THR B   5       6.888  88.501  63.766  1.00  6.06    -0.271 OA
BRANCH  54  57
ATOM     57  CA  TRP B   6       9.254  89.827  64.321  1.00  0.00     0.181 C 
BRANCH  57  58
ATOM     58  CB  TRP B   6       9.212  88.821  65.473  1.00  0.00     0.075 C 
BRANCH  58  59
ATOM     59  CG  TRP B   6       8.874  89.453  66.788  1.00  0.00    -0.028 A 
ATOM     60  CD2 TRP B   6       9.273  88.996  68.086  1.00  0.00    -0.002 A 
ATOM     61  CE2 TRP B   6       8.736  89.894  69.027  1.00  0.00     0.042 A 
ATOM     62  CE3 TRP B   6      10.030  87.914  68.542  1.00  0.00     0.014 A 
ATOM     63  CZ2 TRP B   6       8.935  89.743  70.397  1.00  0.00     0.030 A 
ATOM     64  NE1 TRP B   6       8.043  90.853  68.334  1.00  0.00    -0.365 N 
ATOM     65  CH2 TRP B   6       9.680  88.675  70.817  1.00  0.00     0.002 A 
ATOM     66  CZ3 TRP B   6      10.226  87.765  69.904  1.00  0.00     0.001 A 
ATOM     67  HE1 TRP B   6       7.564  91.610  68.732  1.00  0.23     0.165 HD
ATOM     68  CD1 TRP B   6       8.131  90.580  66.990  1.00  0.00     0.096 A 
ENDBRANCH  58  59
ENDBRANCH  57  58
BRANCH  57  69
ATOM     69  C   TRP B   6      10.630  90.480  64.243  1.00  0.00     0.241 C 
ATOM     70  N   VAL B   7      10.717  91.719  64.720  1.00  6.11    -0.344 N 
ATOM     71  H   VAL B   7       9.917  92.144  65.091  1.00  0.23     0.163 HD
ATOM     72  O   TRP B   6      11.588  89.877  63.759  1.00  0.00    -0.271 OA
BRANCH  70  73
ATOM     73  CA  VAL B   7      11.972  92.459  64.703  1.00  5.65     0.189 C 
BRANCH  73  74
ATOM     74  CB  VAL B   7      11.742  93.953  65.004  1.00  1.15     0.010 C 
ATOM     75  CG1 VAL B   7      12.541  94.820  64.042  1.00  4.96     0.012 C 
ATOM     76  CG2 VAL B   7      10.261  94.293  64.934  1.00  9.83     0.012 C 
ENDBRANCH  73  74
BRANCH  73  77
ATOM     77  C   VAL B   7      12.960  91.892  65.719  1.00  4.44     0.197 C 
ATOM     78  OXT VAL B   7      14.098  91.570  65.322  1.00  0.00    -0.646 OA
ATOM     79  O   VAL B   7      12.584  91.777  66.904  1.00  0.00    -0.646 OA
ENDBRANCH  73  77
ENDBRANCH  70  73
ENDBRANCH  57  69
ENDBRANCH  54  57
ENDBRANCH  48  53
ENDBRANCH  46  48
ENDBRANCH   1  44
TORSDOF 27
ENDMDL
MODEL 3
REMARK VINA RESULT:      -5.5      2.658      6.524
REMARK  27 active torsions:
REMARK  status: ('A' for Active; 'I' for Inactive)
REMARK    1  A    between atoms: N_1  and  CA_2 
REMARK    2  A    between atoms: CA_2  and  CB_5 
REMARK    3  A    between atoms: CA_2  and  C_3 
REMARK       I    between atoms: C_3  and  N_18 
REMARK    4  A    between atoms: CB_5  and  CG_6 
REMARK    5  A    between atoms: CZ_11  and  OH_12 
REMARK    6  A    between atoms: CA_15  and  C_16 
REMARK    7  A    between atoms: CA_15  and  N_18 
REMARK       I    between atoms: C_16  and  N_33 
REMARK    8  A    between atoms: CA_20  and  CB_22 
REMARK    9  A    between atoms: CA_20  and  N_33 
REMARK   10  A    between atoms: CA_20  and  C_21 
REMARK       I    between atoms: C_21  and  N_42 
REMARK   11  A    between atoms: CB_22  and  CG_23 
REMARK   12  A    between atoms: CA_36  and  N_42 
REMARK   13  A    between atoms: CA_36  and  CB_38 
REMARK   14  A    between atoms: CA_36  and  C_37 
REMARK       I    between atoms: C_37  and  N_52 
REMARK   15  A    between atoms: CB_38  and  CG_39 
REMARK   16  A    between atoms: CG_39  and  CD_40 
REMARK   17  A    between atoms: CA_46  and  N_52 
REMARK   18  A    between atoms: CA_46  and  CB_48 
REMARK   19  A    between atoms: CA_46  and  C_47 
REMARK       I    between atoms: C_47  and  N_68 
REMARK   20  A    between atoms: CB_48  and  OG1_54 
REMARK   21  A    between atoms: CA_55  and  CB_57 
REMARK   22  A    between atoms: CA_55  and  N_68 
REMARK   23  A    between atoms: CA_55  and  C_56 
REMARK       I    between atoms: C_56  and  N_77 
REMARK   24  A    between atoms: CB_57  and  CG_58 
REMARK   25  A    between atoms: CA_71  and  N_77 
REMARK   26  A    between atoms: CA_71  and  CB_73 
REMARK   27  A    between atoms: CA_71  and  C_72 
ROOT
ATOM      1  CA  GLU B   4       5.373  88.484  61.920  1.00  0.00     0.177 C 
ENDROOT
BRANCH   1   2
ATOM      2  N   GLU B   4       4.093  88.958  62.444  1.00  0.00    -0.346 N 
ATOM      3  C   TRP B   3       3.833  88.946  63.748  1.00  0.00     0.241 C 
ATOM      4  O   TRP B   3       4.639  88.540  64.584  1.00  0.00    -0.271 OA
ATOM      5  H   GLU B   4       3.416  89.293  61.821  1.00  0.23     0.163 HD
BRANCH   3   6
ATOM      6  CA  TRP B   3       2.464  89.468  64.175  1.00  0.00     0.181 C 
BRANCH   6   7
ATOM      7  CB  TRP B   3       2.597  90.301  65.458  1.00  0.00     0.075 C 
BRANCH   7   8
ATOM      8  CG  TRP B   3       3.649  91.369  65.387  1.00  0.00    -0.028 A 
ATOM      9  CD1 TRP B   3       3.698  92.412  64.507  1.00  0.00     0.096 A 
ATOM     10  NE1 TRP B   3       4.816  93.178  64.744  1.00  0.00    -0.365 N 
ATOM     11  CE2 TRP B   3       5.513  92.633  65.790  1.00  0.00     0.042 A 
ATOM     12  HE1 TRP B   3       5.070  93.983  64.246  1.00  0.23     0.165 HD
ATOM     13  CZ2 TRP B   3       6.699  93.048  66.392  1.00  0.00     0.030 A 
ATOM     14  CD2 TRP B   3       4.809  91.492  66.219  1.00  0.00    -0.002 A 
ATOM     15  CH2 TRP B   3       7.175  92.301  67.435  1.00  0.00     0.002 A 
ATOM     16  CZ3 TRP B   3       6.498  91.161  67.883  1.00  0.00     0.001 A 
ATOM     17  CE3 TRP B   3       5.321  90.748  67.287  1.00  0.00     0.014 A 
ENDBRANCH   7   8
ENDBRANCH   6   7
BRANCH   6  18
ATOM     18  N   TRP B   3       1.517  88.372  64.358  1.00  0.00    -0.346 N 
ATOM     19  C   GLY B   2       1.444  87.696  65.501  1.00  0.00     0.236 C 
ATOM     20  O   GLY B   2       2.159  87.941  66.471  1.00  0.00    -0.272 OA
ATOM     21  H   TRP B   3       0.915  88.132  63.621  1.00  0.23     0.163 HD
BRANCH  19  22
ATOM     22  CA  GLY B   2       0.414  86.584  65.561  1.00  0.00     0.225 C 
BRANCH  22  23
ATOM     23  N   GLY B   2       0.498  85.685  64.424  1.00  0.00    -0.350 N 
ATOM     24  H   GLY B   2      -0.107  85.804  63.663  1.00  0.23     0.163 HD
ATOM     25  C   TYR B   1       1.380  84.690  64.372  1.00  0.00     0.254 C 
ATOM     26  O   TYR B   1       2.181  84.482  65.317  1.00  0.00    -0.271 OA
BRANCH  25  27
ATOM     27  CA  TYR B   1       1.364  83.799  63.153  1.00  0.00     0.354 C 
BRANCH  27  28
ATOM     28  N   TYR B   1       1.028  82.425  63.514  1.00  0.00     0.312 N 
ATOM     29  H   TYR B   1       1.462  81.761  62.815  1.00  0.00     0.359 HD
ENDBRANCH  27  28
BRANCH  27  30
ATOM     30  CB  TYR B   1       0.324  84.379  62.149  1.00  0.00     0.086 C 
BRANCH  30  31
ATOM     31  CG  TYR B   1       0.874  85.261  61.022  1.00  0.00    -0.055 A 
ATOM     32  CD1 TYR B   1       2.056  84.917  60.360  1.00  0.00     0.010 A 
ATOM     33  CE1 TYR B   1       2.537  85.717  59.328  1.00  0.00     0.037 A 
ATOM     34  CZ  TYR B   1       1.842  86.865  58.954  1.00  0.00     0.065 A 
ATOM     35  CE2 TYR B   1       0.665  87.215  59.612  1.00  0.00     0.037 A 
ATOM     36  CD2 TYR B   1       0.182  86.416  60.643  1.00  0.00     0.010 A 
BRANCH  34  37
ATOM     37  OH  TYR B   1       2.317  87.646  57.939  1.00  0.00    -0.361 OA
ATOM     38  HH  TYR B   1       3.275  87.669  57.996  1.00  0.00     0.217 HD
ENDBRANCH  34  37
ENDBRANCH  30  31
ENDBRANCH  27  30
ENDBRANCH  25  27
ENDBRANCH  22  23
ENDBRANCH  19  22
ENDBRANCH   6  18
ENDBRANCH   3   6
ENDBRANCH   1   2
BRANCH   1  39
ATOM     39  CB  GLU B   4       5.152  87.537  60.740  1.00  0.00     0.045 C 
BRANCH  39  40
ATOM     40  CG  GLU B   4       5.410  88.184  59.389  1.00  0.00     0.116 C 
BRANCH  40  41
ATOM     41  CD  GLU B   4       6.248  87.313  58.472  1.00  0.00     0.172 C 
ATOM     42  OE1 GLU B   4       6.079  86.077  58.511  1.00  0.00    -0.648 OA
ATOM     43  OE2 GLU B   4       7.072  87.869  57.716  1.00  0.00    -0.648 OA
ENDBRANCH  40  41
ENDBRANCH  39  40
ENDBRANCH   1  39
BRANCH   1  44
ATOM     44  C   GLU B   4       6.249  89.654  61.484  1.00  0.00     0.241 C 
ATOM     45  O   GLU B   4       7.369  89.461  61.011  1.00  0.00    -0.271 OA
ATOM     46  N   THR B   5       5.731  90.868  61.652  1.00  7.70    -0.344 N 
ATOM     47  H   THR B   5       4.833  90.953  62.037  1.00  0.23     0.163 HD
BRANCH  46  48
ATOM     48  CA  THR B   5       6.461  92.076  61.281  1.00  7.88     0.205 C 
BRANCH  48  49
ATOM     49  CB  THR B   5       5.484  93.197  60.922  1.00  4.05     0.146 C 
ATOM     50  CG2 THR B   5       5.940  94.033  59.746  1.00  3.72     0.042 C 
BRANCH  49  51
ATOM     51  OG1 THR B   5       4.210  92.668  60.604  1.00  7.31    -0.393 OA
ATOM     52  HG1 THR B   5       3.638  93.374  60.295  1.00  0.23     0.210 HD
ENDBRANCH  49  51
ENDBRANCH  48  49
BRANCH  48  53
ATOM     53  C   THR B   5       7.372  92.525  62.420  1.00  7.05     0.243 C 
ATOM     54  N   TRP B   6       8.473  91.806  62.610  1.00  0.00    -0.346 N 
ATOM     55  H   TRP B   6       8.651  91.039  62.026  1.00  0.23     0.163 HD
ATOM     56  O   THR B   5       7.081  93.499  63.113  1.00  6.06    -0.271 OA
BRANCH  54  57
ATOM     57  CA  TRP B   6       9.422  92.129  63.667  1.00  0.00     0.181 C 
BRANCH  57  58
ATOM     58  CB  TRP B   6      10.153  90.866  64.124  1.00  0.00     0.075 C 
BRANCH  58  59
ATOM     59  CG  TRP B   6       9.257  89.896  64.832  1.00  0.00    -0.028 A 
ATOM     60  CD2 TRP B   6       9.324  89.519  66.213  1.00  0.00    -0.002 A 
ATOM     61  CE2 TRP B   6       8.288  88.593  66.442  1.00  0.00     0.042 A 
ATOM     62  CE3 TRP B   6      10.159  89.874  67.275  1.00  0.00     0.014 A 
ATOM     63  CZ2 TRP B   6       8.067  88.020  67.691  1.00  0.00     0.030 A 
ATOM     64  NE1 TRP B   6       7.624  88.416  65.256  1.00  0.00    -0.365 N 
ATOM     65  CH2 TRP B   6       8.899  88.384  68.714  1.00  0.00     0.002 A 
ATOM     66  CZ3 TRP B   6       9.937  89.302  68.516  1.00  0.00     0.001 A 
ATOM     67  HE1 TRP B   6       6.854  87.825  65.116  1.00  0.23     0.165 HD
ATOM     68  CD1 TRP B   6       8.212  89.202  64.295  1.00  0.00     0.096 A 
ENDBRANCH  58  59
ENDBRANCH  57  58
BRANCH  57  69
ATOM     69  C   TRP B   6      10.426  93.177  63.197  1.00  0.00     0.241 C 
ATOM     70  N   VAL B   7      11.693  92.969  63.545  1.00  6.11    -0.344 N 
ATOM     71  H   VAL B   7      11.919  92.175  64.071  1.00  0.23     0.163 HD
ATOM     72  O   TRP B   6      10.060  94.151  62.539  1.00  0.00    -0.271 OA
BRANCH  70  73
ATOM     73  CA  VAL B   7      12.752  93.895  63.164  1.00  5.65     0.189 C 
BRANCH  73  74
ATOM     74  CB  VAL B   7      12.724  95.164  64.038  1.00  1.15     0.010 C 
ATOM     75  CG1 VAL B   7      12.424  94.808  65.487  1.00  4.96     0.012 C 
ATOM     76  CG2 VAL B   7      14.040  95.920  63.930  1.00  9.83     0.012 C 
ENDBRANCH  73  74
BRANCH  73  77
ATOM     77  C   VAL B   7      14.125  93.239  63.281  1.00  4.44     0.197 C 
ATOM     78  OXT VAL B   7      14.956  93.438  62.372  1.00  0.00    -0.646 OA
ATOM     79  O   VAL B   7      14.356  92.531  64.284  1.00  0.00    -0.646 OA
ENDBRANCH  73  77
ENDBRANCH  70  73
ENDBRANCH  57  69
ENDBRANCH  54  57
ENDBRANCH  48  53
ENDBRANCH  46  48
ENDBRANCH   1  44
TORSDOF 27
ENDMDL
MODEL 4
REMARK VINA RESULT:      -4.4      2.368      8.194
REMARK  27 active torsions:
REMARK  status: ('A' for Active; 'I' for Inactive)
REMARK    1  A    between atoms: N_1  and  CA_2 
REMARK    2  A    between atoms: CA_2  and  CB_5 
REMARK    3  A    between atoms: CA_2  and  C_3 
REMARK       I    between atoms: C_3  and  N_18 
REMARK    4  A    between atoms: CB_5  and  CG_6 
REMARK    5  A    between atoms: CZ_11  and  OH_12 
REMARK    6  A    between atoms: CA_15  and  C_16 
REMARK    7  A    between atoms: CA_15  and  N_18 
REMARK       I    between atoms: C_16  and  N_33 
REMARK    8  A    between atoms: CA_20  and  CB_22 
REMARK    9  A    between atoms: CA_20  and  N_33 
REMARK   10  A    between atoms: CA_20  and  C_21 
REMARK       I    between atoms: C_21  and  N_42 
REMARK   11  A    between atoms: CB_22  and  CG_23 
REMARK   12  A    between atoms: CA_36  and  N_42 
REMARK   13  A    between atoms: CA_36  and  CB_38 
REMARK   14  A    between atoms: CA_36  and  C_37 
REMARK       I    between atoms: C_37  and  N_52 
REMARK   15  A    between atoms: CB_38  and  CG_39 
REMARK   16  A    between atoms: CG_39  and  CD_40 
REMARK   17  A    between atoms: CA_46  and  N_52 
REMARK   18  A    between atoms: CA_46  and  CB_48 
REMARK   19  A    between atoms: CA_46  and  C_47 
REMARK       I    between atoms: C_47  and  N_68 
REMARK   20  A    between atoms: CB_48  and  OG1_54 
REMARK   21  A    between atoms: CA_55  and  CB_57 
REMARK   22  A    between atoms: CA_55  and  N_68 
REMARK   23  A    between atoms: CA_55  and  C_56 
REMARK       I    between atoms: C_56  and  N_77 
REMARK   24  A    between atoms: CB_57  and  CG_58 
REMARK   25  A    between atoms: CA_71  and  N_77 
REMARK   26  A    between atoms: CA_71  and  CB_73 
REMARK   27  A    between atoms: CA_71  and  C_72 
ROOT
ATOM      1  CA  GLU B   4       6.089  86.858  61.684  1.00  0.00     0.177 C 
ENDROOT
BRANCH   1   2
ATOM      2  N   GLU B   4       4.820  87.387  62.181  1.00  0.00    -0.346 N 
ATOM      3  C   TRP B   3       3.776  86.591  62.395  1.00  0.00     0.241 C 
ATOM      4  O   TRP B   3       3.809  85.379  62.188  1.00  0.00    -0.271 OA
ATOM      5  H   GLU B   4       4.739  88.346  62.364  1.00  0.23     0.163 HD
BRANCH   3   6
ATOM      6  CA  TRP B   3       2.506  87.258  62.917  1.00  0.00     0.181 C 
BRANCH   6   7
ATOM      7  CB  TRP B   3       1.750  86.293  63.842  1.00  0.00     0.075 C 
BRANCH   7   8
ATOM      8  CG  TRP B   3       2.181  86.358  65.278  1.00  0.00    -0.028 A 
ATOM      9  CD1 TRP B   3       2.694  87.442  65.931  1.00  0.00     0.096 A 
ATOM     10  NE1 TRP B   3       2.980  87.116  67.236  1.00  0.00    -0.365 N 
ATOM     11  CE2 TRP B   3       2.655  85.802  67.447  1.00  0.00     0.042 A 
ATOM     12  HE1 TRP B   3       3.354  87.727  67.905  1.00  0.23     0.165 HD
ATOM     13  CZ2 TRP B   3       2.762  85.024  68.597  1.00  0.00     0.030 A 
ATOM     14  CD2 TRP B   3       2.150  85.292  66.235  1.00  0.00    -0.002 A 
ATOM     15  CH2 TRP B   3       2.355  83.720  68.519  1.00  0.00     0.002 A 
ATOM     16  CZ3 TRP B   3       1.851  83.184  67.329  1.00  0.00     0.001 A 
ATOM     17  CE3 TRP B   3       1.744  83.954  66.187  1.00  0.00     0.014 A 
ENDBRANCH   7   8
ENDBRANCH   6   7
BRANCH   6  18
ATOM     18  N   TRP B   3       1.656  87.705  61.818  1.00  0.00    -0.346 N 
ATOM     19  C   GLY B   2       0.810  86.878  61.209  1.00  0.00     0.236 C 
ATOM     20  O   GLY B   2       0.686  85.695  61.523  1.00  0.00    -0.272 OA
ATOM     21  H   TRP B   3       1.706  88.640  61.524  1.00  0.23     0.163 HD
BRANCH  19  22
ATOM     22  CA  GLY B   2      -0.019  87.470  60.085  1.00  0.00     0.225 C 
BRANCH  22  23
ATOM     23  N   GLY B   2       0.410  88.809  59.723  1.00  0.00    -0.350 N 
ATOM     24  H   GLY B   2       0.287  89.547  60.355  1.00  0.23     0.163 HD
ATOM     25  C   TYR B   1       0.976  89.078  58.548  1.00  0.00     0.254 C 
ATOM     26  O   TYR B   1       1.157  88.176  57.694  1.00  0.00    -0.271 OA
BRANCH  25  27
ATOM     27  CA  TYR B   1       1.361  90.510  58.265  1.00  0.00     0.354 C 
BRANCH  27  28
ATOM     28  N   TYR B   1       0.187  91.377  58.270  1.00  0.00     0.312 N 
ATOM     29  H   TYR B   1       0.097  91.845  59.214  1.00  0.00     0.359 HD
ENDBRANCH  27  28
BRANCH  27  30
ATOM     30  CB  TYR B   1       2.384  90.955  59.351  1.00  0.00     0.086 C 
BRANCH  30  31
ATOM     31  CG  TYR B   1       3.842  90.533  59.136  1.00  0.00    -0.055 A 
ATOM     32  CD1 TYR B   1       4.826  90.869  60.071  1.00  0.00     0.010 A 
ATOM     33  CE1 TYR B   1       6.144  90.468  59.872  1.00  0.00     0.037 A 
ATOM     34  CZ  TYR B   1       6.486  89.732  58.739  1.00  0.00     0.065 A 
ATOM     35  CE2 TYR B   1       5.510  89.396  57.803  1.00  0.00     0.037 A 
ATOM     36  CD2 TYR B   1       4.192  89.796  58.000  1.00  0.00     0.010 A 
BRANCH  34  37
ATOM     37  OH  TYR B   1       7.780  89.338  58.550  1.00  0.00    -0.361 OA
ATOM     38  HH  TYR B   1       7.825  88.822  57.741  1.00  0.00     0.217 HD
ENDBRANCH  34  37
ENDBRANCH  30  31
ENDBRANCH  27  30
ENDBRANCH  25  27
ENDBRANCH  22  23
ENDBRANCH  19  22
ENDBRANCH   6  18
ENDBRANCH   3   6
ENDBRANCH   1   2
BRANCH   1  39
ATOM     39  CB  GLU B   4       6.008  86.600  60.178  1.00  0.00     0.045 C 
BRANCH  39  40
ATOM     40  CG  GLU B   4       6.650  85.289  59.755  1.00  0.00     0.116 C 
BRANCH  40  41
ATOM     41  CD  GLU B   4       7.153  85.317  58.324  1.00  0.00     0.172 C 
ATOM     42  OE1 GLU B   4       7.125  86.402  57.707  1.00  0.00    -0.648 OA
ATOM     43  OE2 GLU B   4       7.573  84.254  57.823  1.00  0.00    -0.648 OA
ENDBRANCH  40  41
ENDBRANCH  39  40
ENDBRANCH   1  39
BRANCH   1  44
ATOM     44  C   GLU B   4       7.233  87.823  61.980  1.00  0.00     0.241 C 
ATOM     45  O   GLU B   4       8.166  87.956  61.188  1.00  0.00    -0.271 OA
ATOM     46  N   THR B   5       7.155  88.490  63.128  1.00  7.70    -0.344 N 
ATOM     47  H   THR B   5       6.385  88.336  63.716  1.00  0.23     0.163 HD
BRANCH  46  48
ATOM     48  CA  THR B   5       8.182  89.442  63.540  1.00  7.88     0.205 C 
BRANCH  48  49
ATOM     49  CB  THR B   5       7.739  90.871  63.222  1.00  4.05     0.146 C 
ATOM     50  CG2 THR B   5       6.237  91.052  63.255  1.00  3.72     0.042 C 
BRANCH  49  51
ATOM     51  OG1 THR B   5       8.301  91.786  64.145  1.00  7.31    -0.393 OA
ATOM     52  HG1 THR B   5       9.220  91.946  63.918  1.00  0.23     0.210 HD
ENDBRANCH  49  51
ENDBRANCH  48  49
BRANCH  48  53
ATOM     53  C   THR B   5       8.473  89.307  65.031  1.00  7.05     0.243 C 
ATOM     54  N   TRP B   6       7.452  89.525  65.852  1.00  0.00    -0.346 N 
ATOM     55  H   TRP B   6       6.577  89.757  65.476  1.00  0.23     0.163 HD
ATOM     56  O   THR B   5       9.601  89.014  65.429  1.00  6.06    -0.271 OA
BRANCH  54  57
ATOM     57  CA  TRP B   6       7.601  89.431  67.299  1.00  0.00     0.181 C 
BRANCH  57  58
ATOM     58  CB  TRP B   6       6.910  90.614  67.979  1.00  0.00     0.075 C 
BRANCH  58  59
ATOM     59  CG  TRP B   6       5.513  90.836  67.486  1.00  0.00    -0.028 A 
ATOM     60  CD2 TRP B   6       4.300  90.473  68.158  1.00  0.00    -0.002 A 
ATOM     61  CE2 TRP B   6       3.232  90.877  67.335  1.00  0.00     0.042 A 
ATOM     62  CE3 TRP B   6       4.015  89.846  69.373  1.00  0.00     0.014 A 
ATOM     63  CZ2 TRP B   6       1.901  90.673  67.691  1.00  0.00     0.030 A 
ATOM     64  NE1 TRP B   6       3.770  91.458  66.216  1.00  0.00    -0.365 N 
ATOM     65  CH2 TRP B   6       1.650  90.056  68.886  1.00  0.00     0.002 A 
ATOM     66  CZ3 TRP B   6       2.693  89.645  69.725  1.00  0.00     0.001 A 
ATOM     67  HE1 TRP B   6       3.260  91.832  65.467  1.00  0.23     0.165 HD
ATOM     68  CD1 TRP B   6       5.140  91.429  66.315  1.00  0.00     0.096 A 
ENDBRANCH  58  59
ENDBRANCH  57  58
BRANCH  57  69
ATOM     69  C   TRP B   6       7.031  88.117  67.822  1.00  0.00     0.241 C 
ATOM     70  N   VAL B   7       7.639  87.598  68.884  1.00  6.11    -0.344 N 
ATOM     71  H   VAL B   7       8.404  88.069  69.274  1.00  0.23     0.163 HD
ATOM     72  O   TRP B   6       6.065  87.585  67.273  1.00  0.00    -0.271 OA
BRANCH  70  73
ATOM     73  CA  VAL B   7       7.197  86.344  69.482  1.00  5.65     0.189 C 
BRANCH  73  74
ATOM     74  CB  VAL B   7       8.361  85.341  69.597  1.00  1.15     0.010 C 
ATOM     75  CG1 VAL B   7       8.344  84.368  68.427  1.00  4.96     0.012 C 
ATOM     76  CG2 VAL B   7       9.694  86.070  69.673  1.00  9.83     0.012 C 
ENDBRANCH  73  74
BRANCH  73  77
ATOM     77  C   VAL B   7       6.599  86.576  70.867  1.00  4.44     0.197 C 
ATOM     78  OXT VAL B   7       6.818  87.666  71.432  1.00  0.00    -0.646 OA
ATOM     79  O   VAL B   7       5.916  85.661  71.374  1.00  0.00    -0.646 OA
ENDBRANCH  73  77
ENDBRANCH  70  73
ENDBRANCH  57  69
ENDBRANCH  54  57
ENDBRANCH  48  53
ENDBRANCH  46  48
ENDBRANCH   1  44
TORSDOF 27
ENDMDL
MODEL 5
REMARK VINA RESULT:      -4.3      3.152      8.240
REMARK  27 active torsions:
REMARK  status: ('A' for Active; 'I' for Inactive)
REMARK    1  A    between atoms: N_1  and  CA_2 
REMARK    2  A    between atoms: CA_2  and  CB_5 
REMARK    3  A    between atoms: CA_2  and  C_3 
REMARK       I    between atoms: C_3  and  N_18 
REMARK    4  A    between atoms: CB_5  and  CG_6 
REMARK    5  A    between atoms: CZ_11  and  OH_12 
REMARK    6  A    between atoms: CA_15  and  C_16 
REMARK    7  A    between atoms: CA_15  and  N_18 
REMARK       I    between atoms: C_16  and  N_33 
REMARK    8  A    between atoms: CA_20  and  CB_22 
REMARK    9  A    between atoms: CA_20  and  N_33 
REMARK   10  A    between atoms: CA_20  and  C_21 
REMARK       I    between atoms: C_21  and  N_42 
REMARK   11  A    between atoms: CB_22  and  CG_23 
REMARK   12  A    between atoms: CA_36  and  N_42 
REMARK   13  A    between atoms: CA_36  and  CB_38 
REMARK   14  A    between atoms: CA_36  and  C_37 
REMARK       I    between atoms: C_37  and  N_52 
REMARK   15  A    between atoms: CB_38  and  CG_39 
REMARK   16  A    between atoms: CG_39  and  CD_40 
REMARK   17  A    between atoms: CA_46  and  N_52 
REMARK   18  A    between atoms: CA_46  and  CB_48 
REMARK   19  A    between atoms: CA_46  and  C_47 
REMARK       I    between atoms: C_47  and  N_68 
REMARK   20  A    between atoms: CB_48  and  OG1_54 
REMARK   21  A    between atoms: CA_55  and  CB_57 
REMARK   22  A    between atoms: CA_55  and  N_68 
REMARK   23  A    between atoms: CA_55  and  C_56 
REMARK       I    between atoms: C_56  and  N_77 
REMARK   24  A    between atoms: CB_57  and  CG_58 
REMARK   25  A    between atoms: CA_71  and  N_77 
REMARK   26  A    between atoms: CA_71  and  CB_73 
REMARK   27  A    between atoms: CA_71  and  C_72 
ROOT
ATOM      1  CA  GLU B   4       6.127  87.206  61.115  1.00  0.00     0.177 C 
ENDROOT
BRANCH   1   2
ATOM      2  N   GLU B   4       4.966  86.670  61.822  1.00  0.00    -0.346 N 
ATOM      3  C   TRP B   3       4.700  85.367  61.827  1.00  0.00     0.241 C 
ATOM      4  O   TRP B   3       5.403  84.542  61.244  1.00  0.00    -0.271 OA
ATOM      5  H   GLU B   4       4.373  87.284  62.304  1.00  0.23     0.163 HD
BRANCH   3   6
ATOM      6  CA  TRP B   3       3.462  84.926  62.602  1.00  0.00     0.181 C 
BRANCH   6   7
ATOM      7  CB  TRP B   3       3.420  83.394  62.696  1.00  0.00     0.075 C 
BRANCH   7   8
ATOM      8  CG  TRP B   3       2.609  82.875  63.847  1.00  0.00    -0.028 A 
ATOM      9  CD1 TRP B   3       2.450  83.464  65.069  1.00  0.00     0.096 A 
ATOM     10  NE1 TRP B   3       1.642  82.688  65.866  1.00  0.00    -0.365 N 
ATOM     11  CE2 TRP B   3       1.266  81.573  65.165  1.00  0.00     0.042 A 
ATOM     12  HE1 TRP B   3       1.378  82.900  66.786  1.00  0.23     0.165 HD
ATOM     13  CZ2 TRP B   3       0.458  80.503  65.545  1.00  0.00     0.030 A 
ATOM     14  CD2 TRP B   3       1.857  81.656  63.890  1.00  0.00    -0.002 A 
ATOM     15  CH2 TRP B   3       0.248  79.512  64.626  1.00  0.00     0.002 A 
ATOM     16  CZ3 TRP B   3       0.823  79.565  63.352  1.00  0.00     0.001 A 
ATOM     17  CE3 TRP B   3       1.625  80.625  62.973  1.00  0.00     0.014 A 
ENDBRANCH   7   8
ENDBRANCH   6   7
BRANCH   6  18
ATOM     18  N   TRP B   3       2.244  85.447  61.987  1.00  0.00    -0.346 N 
ATOM     19  C   GLY B   2       1.541  84.729  61.114  1.00  0.00     0.236 C 
ATOM     20  O   GLY B   2       1.862  83.594  60.767  1.00  0.00    -0.272 OA
ATOM     21  H   TRP B   3       1.933  86.346  62.228  1.00  0.23     0.163 HD
BRANCH  19  22
ATOM     22  CA  GLY B   2       0.294  85.385  60.554  1.00  0.00     0.225 C 
BRANCH  22  23
ATOM     23  N   GLY B   2       0.153  86.768  60.976  1.00  0.00    -0.350 N 
ATOM     24  H   GLY B   2      -0.550  87.014  61.612  1.00  0.23     0.163 HD
ATOM     25  C   TYR B   1       0.958  87.730  60.529  1.00  0.00     0.254 C 
ATOM     26  O   TYR B   1       1.875  87.480  59.709  1.00  0.00    -0.271 OA
BRANCH  25  27
ATOM     27  CA  TYR B   1       0.707  89.137  61.014  1.00  0.00     0.354 C 
BRANCH  27  28
ATOM     28  N   TYR B   1      -0.055  89.901  60.031  1.00  0.00     0.312 N 
ATOM     29  H   TYR B   1       0.603  90.499  59.459  1.00  0.00     0.359 HD
ENDBRANCH  27  28
BRANCH  27  30
ATOM     30  CB  TYR B   1      -0.061  89.049  62.365  1.00  0.00     0.086 C 
BRANCH  30  31
ATOM     31  CG  TYR B   1       0.692  88.423  63.545  1.00  0.00    -0.055 A 
ATOM     32  CD1 TYR B   1       0.023  87.611  64.467  1.00  0.00     0.010 A 
ATOM     33  CE1 TYR B   1       0.721  87.036  65.525  1.00  0.00     0.037 A 
ATOM     34  CZ  TYR B   1       2.087  87.270  65.669  1.00  0.00     0.065 A 
ATOM     35  CE2 TYR B   1       2.757  88.080  64.755  1.00  0.00     0.037 A 
ATOM     36  CD2 TYR B   1       2.062  88.655  63.696  1.00  0.00     0.010 A 
BRANCH  34  37
ATOM     37  OH  TYR B   1       2.767  86.702  66.708  1.00  0.00    -0.361 OA
ATOM     38  HH  TYR B   1       3.478  86.166  66.348  1.00  0.00     0.217 HD
ENDBRANCH  34  37
ENDBRANCH  30  31
ENDBRANCH  27  30
ENDBRANCH  25  27
ENDBRANCH  22  23
ENDBRANCH  19  22
ENDBRANCH   6  18
ENDBRANCH   3   6
ENDBRANCH   1   2
BRANCH   1  39
ATOM     39  CB  GLU B   4       5.832  87.336  59.620  1.00  0.00     0.045 C 
BRANCH  39  40
ATOM     40  CG  GLU B   4       6.975  86.865  58.735  1.00  0.00     0.116 C 
BRANCH  40  41
ATOM     41  CD  GLU B   4       6.608  85.654  57.898  1.00  0.00     0.172 C 
ATOM     42  OE1 GLU B   4       5.399  85.399  57.722  1.00  0.00    -0.648 OA
ATOM     43  OE2 GLU B   4       7.532  84.962  57.420  1.00  0.00    -0.648 OA
ENDBRANCH  40  41
ENDBRANCH  39  40
ENDBRANCH   1  39
BRANCH   1  44
ATOM     44  C   GLU B   4       6.528  88.566  61.680  1.00  0.00     0.241 C 
ATOM     45  O   GLU B   4       7.484  89.185  61.213  1.00  0.00    -0.271 OA
ATOM     46  N   THR B   5       5.792  89.020  62.690  1.00  7.70    -0.344 N 
ATOM     47  H   THR B   5       5.044  88.476  63.016  1.00  0.23     0.163 HD
BRANCH  46  48
ATOM     48  CA  THR B   5       6.066  90.304  63.328  1.00  7.88     0.205 C 
BRANCH  48  49
ATOM     49  CB  THR B   5       4.774  91.110  63.474  1.00  4.05     0.146 C 
ATOM     50  CG2 THR B   5       5.012  92.561  63.833  1.00  3.72     0.042 C 
BRANCH  49  51
ATOM     51  OG1 THR B   5       4.028  91.083  62.271  1.00  7.31    -0.393 OA
ATOM     52  HG1 THR B   5       3.091  91.105  62.474  1.00  0.23     0.210 HD
ENDBRANCH  49  51
ENDBRANCH  48  49
BRANCH  48  53
ATOM     53  C   THR B   5       6.708  90.098  64.696  1.00  7.05     0.243 C 
ATOM     54  N   TRP B   6       5.895  90.169  65.745  1.00  0.00    -0.346 N 
ATOM     55  H   TRP B   6       4.942  90.346  65.600  1.00  0.23     0.163 HD
ATOM     56  O   THR B   5       7.915  89.882  64.799  1.00  6.06    -0.271 OA
BRANCH  54  57
ATOM     57  CA  TRP B   6       6.386  89.994  67.105  1.00  0.00     0.181 C 
BRANCH  57  58
ATOM     58  CB  TRP B   6       5.593  90.876  68.071  1.00  0.00     0.075 C 
BRANCH  58  59
ATOM     59  CG  TRP B   6       4.242  90.318  68.397  1.00  0.00    -0.028 A 
ATOM     60  CD2 TRP B   6       3.023  90.551  67.681  1.00  0.00    -0.002 A 
ATOM     61  CE2 TRP B   6       2.011  89.824  68.335  1.00  0.00     0.042 A 
ATOM     62  CE3 TRP B   6       2.691  91.305  66.553  1.00  0.00     0.014 A 
ATOM     63  CZ2 TRP B   6       0.690  89.829  67.895  1.00  0.00     0.030 A 
ATOM     64  NE1 TRP B   6       2.587  89.179  69.398  1.00  0.00    -0.365 N 
ATOM     65  CH2 TRP B   6       0.391  90.576  66.789  1.00  0.00     0.002 A 
ATOM     66  CZ3 TRP B   6       1.377  91.309  66.118  1.00  0.00     0.001 A 
ATOM     67  HE1 TRP B   6       2.120  88.596  70.033  1.00  0.23     0.165 HD
ATOM     68  CD1 TRP B   6       3.927  89.481  69.428  1.00  0.00     0.096 A 
ENDBRANCH  58  59
ENDBRANCH  57  58
BRANCH  57  69
ATOM     69  C   TRP B   6       6.297  88.533  67.534  1.00  0.00     0.241 C 
ATOM     70  N   VAL B   7       7.238  88.111  68.373  1.00  6.11    -0.344 N 
ATOM     71  H   VAL B   7       7.927  88.740  68.672  1.00  0.23     0.163 HD
ATOM     72  O   TRP B   6       5.398  87.805  67.110  1.00  0.00    -0.271 OA
BRANCH  70  73
ATOM     73  CA  VAL B   7       7.271  86.738  68.859  1.00  5.65     0.189 C 
BRANCH  73  74
ATOM     74  CB  VAL B   7       8.688  86.142  68.749  1.00  1.15     0.010 C 
ATOM     75  CG1 VAL B   7       8.887  85.484  67.391  1.00  4.96     0.012 C 
ATOM     76  CG2 VAL B   7       9.742  87.213  68.989  1.00  9.83     0.012 C 
ENDBRANCH  73  74
BRANCH  73  77
ATOM     77  C   VAL B   7       6.806  86.655  70.310  1.00  4.44     0.197 C 
ATOM     78  OXT VAL B   7       6.617  87.719  70.932  1.00  0.00    -0.646 OA
ATOM     79  O   VAL B   7       6.635  85.523  70.810  1.00  0.00    -0.646 OA
ENDBRANCH  73  77
ENDBRANCH  70  73
ENDBRANCH  57  69
ENDBRANCH  54  57
ENDBRANCH  48  53
ENDBRANCH  46  48
ENDBRANCH   1  44
TORSDOF 27
ENDMDL
