MODEL 1
REMARK VINA RESULT:      -8.2      0.000      0.000
REMARK  26 active torsions:
REMARK  status: ('A' for Active; 'I' for Inactive)
REMARK    1  A    between atoms: N_1  and  CA_2 
REMARK    2  A    between atoms: CA_2  and  CB_5 
REMARK    3  A    between atoms: CA_2  and  C_3 
REMARK       I    between atoms: C_3  and  N_13 
REMARK    4  A    between atoms: CB_5  and  OG1_7 
REMARK    5  A    between atoms: CA_10  and  N_13 
REMARK    6  A    between atoms: CA_10  and  C_11 
REMARK       I    between atoms: C_11  and  N_28 
REMARK    7  A    between atoms: CA_15  and  C_16 
REMARK    8  A    between atoms: CA_15  and  N_28 
REMARK    9  A    between atoms: CA_15  and  CB_17 
REMARK       I    between atoms: C_16  and  N_37 
REMARK   10  A    between atoms: CB_17  and  CG_18 
REMARK   11  A    between atoms: CA_31  and  N_37 
REMARK   12  A    between atoms: CA_31  and  CB_33 
REMARK   13  A    between atoms: CA_31  and  C_32 
REMARK       I    between atoms: C_32  and  N_47 
REMARK   14  A    between atoms: CB_33  and  CG_34 
REMARK   15  A    between atoms: CG_34  and  CD_35 
REMARK   16  A    between atoms: CA_41  and  N_47 
REMARK   17  A    between atoms: CA_41  and  CB_43 
REMARK   18  A    between atoms: CA_41  and  C_42 
REMARK       I    between atoms: C_42  and  N_63 
REMARK   19  A    between atoms: CB_43  and  OG1_49 
REMARK   20  A    between atoms: CA_50  and  CB_52 
REMARK   21  A    between atoms: CA_50  and  N_63 
REMARK   22  A    between atoms: CA_50  and  C_51 
REMARK       I    between atoms: C_51  and  N_72 
REMARK   23  A    between atoms: CB_52  and  CG_53 
REMARK   24  A    between atoms: CA_66  and  CB_68 
REMARK   25  A    between atoms: CA_66  and  C_67 
REMARK   26  A    between atoms: CA_66  and  N_72 
ROOT
ATOM      1  CA  GLU B   4       4.732  89.445  64.053  1.00  0.00     0.177 C 
ENDROOT
BRANCH   1   2
ATOM      2  N   GLU B   4       4.077  88.300  63.423  1.00  0.00    -0.346 N 
ATOM      3  H   GLU B   4       4.530  87.431  63.421  1.00  0.23     0.163 HD
ATOM      4  C   TRP B   3       2.882  88.415  62.851  1.00  0.00     0.241 C 
ATOM      5  O   TRP B   3       2.260  89.476  62.818  1.00  0.00    -0.271 OA
BRANCH   4   6
ATOM      6  CA  TRP B   3       2.302  87.151  62.224  1.00  0.00     0.181 C 
BRANCH   6   7
ATOM      7  N   TRP B   3       3.198  86.611  61.205  1.00  0.00    -0.346 N 
ATOM      8  H   TRP B   3       4.055  86.222  61.480  1.00  0.23     0.163 HD
ATOM      9  C   GLY B   2       2.882  86.640  59.912  1.00  0.00     0.236 C 
ATOM     10  O   GLY B   2       1.830  87.115  59.490  1.00  0.00    -0.272 OA
BRANCH   9  11
ATOM     11  CA  GLY B   2       3.902  86.050  58.958  1.00  0.00     0.225 C 
BRANCH  11  12
ATOM     12  N   GLY B   2       4.952  86.992  58.613  1.00  0.00    -0.350 N 
ATOM     13  H   GLY B   2       4.743  87.945  58.526  1.00  0.23     0.163 HD
ATOM     14  C   THR B   1       6.208  86.585  58.393  1.00  0.00     0.256 C 
ATOM     15  O   THR B   1       6.542  85.399  58.501  1.00  0.00    -0.271 OA
BRANCH  14  16
ATOM     16  CA  THR B   1       7.201  87.667  58.040  1.00  0.00     0.378 C 
BRANCH  16  17
ATOM     17  CB  THR B   1       7.548  88.531  59.299  1.00  0.00     0.159 C 
ATOM     18  CG2 THR B   1       6.687  89.795  59.519  1.00  0.00     0.042 C 
BRANCH  17  19
ATOM     19  OG1 THR B   1       7.377  87.772  60.489  1.00  0.00    -0.393 OA
ATOM     20  HG1 THR B   1       6.428  87.688  60.618  1.00  0.00     0.210 HD
ENDBRANCH  17  19
ENDBRANCH  16  17
BRANCH  16  21
ATOM     21  N   THR B   1       6.695  88.510  56.962  1.00  0.00     0.315 N 
ATOM     22  H   THR B   1       5.847  89.048  57.301  1.00  0.00     0.359 HD
ENDBRANCH  16  21
ENDBRANCH  14  16
ENDBRANCH  11  12
ENDBRANCH   9  11
ENDBRANCH   6   7
BRANCH   6  23
ATOM     23  CB  TRP B   3       2.015  86.109  63.314  1.00  0.00     0.075 C 
BRANCH  23  24
ATOM     24  CG  TRP B   3       1.370  84.853  62.805  1.00  0.00    -0.028 A 
ATOM     25  CD1 TRP B   3       0.219  84.761  62.076  1.00  0.00     0.096 A 
ATOM     26  NE1 TRP B   3      -0.061  83.443  61.799  1.00  0.00    -0.365 N 
ATOM     27  CE2 TRP B   3       0.915  82.656  62.353  1.00  0.00     0.042 A 
ATOM     28  HE1 TRP B   3      -0.833  83.121  61.288  1.00  0.23     0.165 HD
ATOM     29  CZ2 TRP B   3       1.066  81.272  62.342  1.00  0.00     0.030 A 
ATOM     30  CD2 TRP B   3       1.832  83.510  62.996  1.00  0.00    -0.002 A 
ATOM     31  CH2 TRP B   3       2.153  80.749  62.986  1.00  0.00     0.002 A 
ATOM     32  CZ3 TRP B   3       3.081  81.571  63.635  1.00  0.00     0.001 A 
ATOM     33  CE3 TRP B   3       2.933  82.945  63.647  1.00  0.00     0.014 A 
ENDBRANCH  23  24
ENDBRANCH   6  23
ENDBRANCH   4   6
ENDBRANCH   1   2
BRANCH   1  34
ATOM     34  CB  GLU B   4       4.964  89.178  65.541  1.00  0.00     0.045 C 
BRANCH  34  35
ATOM     35  CG  GLU B   4       4.068  90.003  66.450  1.00  0.00     0.116 C 
BRANCH  35  36
ATOM     36  CD  GLU B   4       3.889  91.427  65.961  1.00  0.00     0.172 C 
ATOM     37  OE1 GLU B   4       2.728  91.849  65.777  1.00  0.00    -0.648 OA
ATOM     38  OE2 GLU B   4       4.909  92.120  65.763  1.00  0.00    -0.648 OA
ENDBRANCH  35  36
ENDBRANCH  34  35
ENDBRANCH   1  34
BRANCH   1  39
ATOM     39  C   GLU B   4       6.061  89.754  63.371  1.00  0.00     0.241 C 
ATOM     40  N   THR B   5       6.396  91.039  63.295  1.00  7.70    -0.344 N 
ATOM     41  H   THR B   5       5.788  91.712  63.669  1.00  0.23     0.163 HD
ATOM     42  O   GLU B   4       6.769  88.848  62.929  1.00  0.00    -0.271 OA
BRANCH  40  43
ATOM     43  CA  THR B   5       7.641  91.477  62.672  1.00  7.88     0.205 C 
BRANCH  43  44
ATOM     44  CB  THR B   5       7.379  92.656  61.733  1.00  4.05     0.146 C 
ATOM     45  CG2 THR B   5       6.112  93.413  62.064  1.00  3.72     0.042 C 
BRANCH  44  46
ATOM     46  OG1 THR B   5       8.454  93.578  61.776  1.00  7.31    -0.393 OA
ATOM     47  HG1 THR B   5       8.968  93.433  62.573  1.00  0.23     0.210 HD
ENDBRANCH  44  46
ENDBRANCH  43  44
BRANCH  43  48
ATOM     48  C   THR B   5       8.662  91.874  63.733  1.00  7.05     0.243 C 
ATOM     49  N   TRP B   6       9.845  91.273  63.666  1.00  0.00    -0.346 N 
ATOM     50  H   TRP B   6      10.009  90.617  62.956  1.00  0.23     0.163 HD
ATOM     51  O   THR B   5       8.382  92.705  64.596  1.00  6.06    -0.271 OA
BRANCH  49  52
ATOM     52  CA  TRP B   6      10.904  91.562  64.624  1.00  0.00     0.181 C 
BRANCH  52  53
ATOM     53  CB  TRP B   6      10.898  93.048  64.985  1.00  0.00     0.075 C 
BRANCH  53  54
ATOM     54  CG  TRP B   6      11.696  93.884  64.032  1.00  0.00    -0.028 A 
ATOM     55  CD2 TRP B   6      13.072  93.700  63.677  1.00  0.00    -0.002 A 
ATOM     56  CE2 TRP B   6      13.401  94.707  62.749  1.00  0.00     0.042 A 
ATOM     57  CE3 TRP B   6      14.057  92.784  64.054  1.00  0.00     0.014 A 
ATOM     58  CZ2 TRP B   6      14.673  94.820  62.194  1.00  0.00     0.030 A 
ATOM     59  NE1 TRP B   6      12.277  95.467  62.550  1.00  0.00    -0.365 N 
ATOM     60  CH2 TRP B   6      15.618  93.910  62.581  1.00  0.00     0.002 A 
ATOM     61  CZ3 TRP B   6      15.320  92.898  63.501  1.00  0.00     0.001 A 
ATOM     62  HE1 TRP B   6      12.211  96.241  61.953  1.00  0.23     0.165 HD
ATOM     63  CD1 TRP B   6      11.259  94.965  63.324  1.00  0.00     0.096 A 
ENDBRANCH  53  54
ENDBRANCH  52  53
BRANCH  52  64
ATOM     64  C   TRP B   6      10.748  90.714  65.882  1.00  0.00     0.241 C 
ATOM     65  O   TRP B   6      11.631  90.689  66.740  1.00  0.00    -0.271 OA
ATOM     66  N   VAL B   7       9.615  90.025  65.985  1.00  6.11    -0.344 N 
ATOM     67  H   VAL B   7       8.951  90.089  65.268  1.00  0.23     0.163 HD
BRANCH  66  68
ATOM     68  CA  VAL B   7       9.337  89.178  67.138  1.00  5.65     0.189 C 
BRANCH  68  69
ATOM     69  CB  VAL B   7       8.294  89.828  68.068  1.00  1.15     0.010 C 
ATOM     70  CG1 VAL B   7       8.942  90.268  69.373  1.00  4.96     0.012 C 
ATOM     71  CG2 VAL B   7       7.617  91.004  67.379  1.00  9.83     0.012 C 
ENDBRANCH  68  69
BRANCH  68  72
ATOM     72  C   VAL B   7       8.831  87.805  66.704  1.00  4.44     0.197 C 
ATOM     73  OXT VAL B   7       8.210  87.717  65.625  1.00  0.00    -0.646 OA
ATOM     74  O   VAL B   7       9.062  86.830  67.448  1.00  0.00    -0.646 OA
ENDBRANCH  68  72
ENDBRANCH  66  68
ENDBRANCH  52  64
ENDBRANCH  49  52
ENDBRANCH  43  48
ENDBRANCH  40  43
ENDBRANCH   1  39
TORSDOF 26
ENDMDL
MODEL 2
REMARK VINA RESULT:      -8.1      1.601      2.114
REMARK  26 active torsions:
REMARK  status: ('A' for Active; 'I' for Inactive)
REMARK    1  A    between atoms: N_1  and  CA_2 
REMARK    2  A    between atoms: CA_2  and  CB_5 
REMARK    3  A    between atoms: CA_2  and  C_3 
REMARK       I    between atoms: C_3  and  N_13 
REMARK    4  A    between atoms: CB_5  and  OG1_7 
REMARK    5  A    between atoms: CA_10  and  N_13 
REMARK    6  A    between atoms: CA_10  and  C_11 
REMARK       I    between atoms: C_11  and  N_28 
REMARK    7  A    between atoms: CA_15  and  C_16 
REMARK    8  A    between atoms: CA_15  and  N_28 
REMARK    9  A    between atoms: CA_15  and  CB_17 
REMARK       I    between atoms: C_16  and  N_37 
REMARK   10  A    between atoms: CB_17  and  CG_18 
REMARK   11  A    between atoms: CA_31  and  N_37 
REMARK   12  A    between atoms: CA_31  and  CB_33 
REMARK   13  A    between atoms: CA_31  and  C_32 
REMARK       I    between atoms: C_32  and  N_47 
REMARK   14  A    between atoms: CB_33  and  CG_34 
REMARK   15  A    between atoms: CG_34  and  CD_35 
REMARK   16  A    between atoms: CA_41  and  N_47 
REMARK   17  A    between atoms: CA_41  and  CB_43 
REMARK   18  A    between atoms: CA_41  and  C_42 
REMARK       I    between atoms: C_42  and  N_63 
REMARK   19  A    between atoms: CB_43  and  OG1_49 
REMARK   20  A    between atoms: CA_50  and  CB_52 
REMARK   21  A    between atoms: CA_50  and  N_63 
REMARK   22  A    between atoms: CA_50  and  C_51 
REMARK       I    between atoms: C_51  and  N_72 
REMARK   23  A    between atoms: CB_52  and  CG_53 
REMARK   24  A    between atoms: CA_66  and  CB_68 
REMARK   25  A    between atoms: CA_66  and  C_67 
REMARK   26  A    between atoms: CA_66  and  N_72 
ROOT
ATOM      1  CA  GLU B   4       2.996  89.870  63.108  1.00  0.00     0.177 C 
ENDROOT
BRANCH   1   2
ATOM      2  N   GLU B   4       2.853  88.479  62.685  1.00  0.00    -0.346 N 
ATOM      3  H   GLU B   4       3.396  87.788  63.119  1.00  0.23     0.163 HD
ATOM      4  C   TRP B   3       2.004  88.133  61.721  1.00  0.00     0.241 C 
ATOM      5  O   TRP B   3       1.294  88.949  61.135  1.00  0.00    -0.271 OA
BRANCH   4   6
ATOM      6  CA  TRP B   3       1.945  86.650  61.364  1.00  0.00     0.181 C 
BRANCH   6   7
ATOM      7  N   TRP B   3       3.183  86.214  60.725  1.00  0.00    -0.346 N 
ATOM      8  H   TRP B   3       3.940  85.941  61.286  1.00  0.23     0.163 HD
ATOM      9  C   GLY B   2       3.311  86.184  59.401  1.00  0.00     0.236 C 
ATOM     10  O   GLY B   2       2.411  86.515  58.632  1.00  0.00    -0.272 OA
BRANCH   9  11
ATOM     11  CA  GLY B   2       4.651  85.715  58.865  1.00  0.00     0.225 C 
BRANCH  11  12
ATOM     12  N   GLY B   2       5.462  86.808  58.359  1.00  0.00    -0.350 N 
ATOM     13  H   GLY B   2       5.229  87.233  57.508  1.00  0.23     0.163 HD
ATOM     14  C   THR B   1       6.538  87.242  59.024  1.00  0.00     0.256 C 
ATOM     15  O   THR B   1       6.878  86.758  60.110  1.00  0.00    -0.271 OA
BRANCH  14  16
ATOM     16  CA  THR B   1       7.294  88.383  58.385  1.00  0.00     0.378 C 
BRANCH  16  17
ATOM     17  CB  THR B   1       7.010  89.725  59.139  1.00  0.00     0.159 C 
ATOM     18  CG2 THR B   1       5.529  90.153  59.240  1.00  0.00     0.042 C 
BRANCH  17  19
ATOM     19  OG1 THR B   1       7.450  89.643  60.489  1.00  0.00    -0.393 OA
ATOM     20  HG1 THR B   1       8.335  89.271  60.458  1.00  0.00     0.210 HD
ENDBRANCH  17  19
ENDBRANCH  16  17
BRANCH  16  21
ATOM     21  N   THR B   1       6.958  88.507  56.971  1.00  0.00     0.315 N 
ATOM     22  H   THR B   1       7.717  89.056  56.474  1.00  0.00     0.359 HD
ENDBRANCH  16  21
ENDBRANCH  14  16
ENDBRANCH  11  12
ENDBRANCH   9  11
ENDBRANCH   6   7
BRANCH   6  23
ATOM     23  CB  TRP B   3       1.651  85.819  62.621  1.00  0.00     0.075 C 
BRANCH  23  24
ATOM     24  CG  TRP B   3       1.211  84.414  62.336  1.00  0.00    -0.028 A 
ATOM     25  CD1 TRP B   3       0.127  84.028  61.600  1.00  0.00     0.096 A 
ATOM     26  NE1 TRP B   3       0.042  82.656  61.566  1.00  0.00    -0.365 N 
ATOM     27  CE2 TRP B   3       1.079  82.130  62.290  1.00  0.00     0.042 A 
ATOM     28  HE1 TRP B   3      -0.649  82.141  61.099  1.00  0.23     0.165 HD
ATOM     29  CZ2 TRP B   3       1.414  80.801  62.543  1.00  0.00     0.030 A 
ATOM     30  CD2 TRP B   3       1.835  83.207  62.790  1.00  0.00    -0.002 A 
ATOM     31  CH2 TRP B   3       2.522  80.563  63.309  1.00  0.00     0.002 A 
ATOM     32  CZ3 TRP B   3       3.292  81.613  63.823  1.00  0.00     0.001 A 
ATOM     33  CE3 TRP B   3       2.962  82.931  63.572  1.00  0.00     0.014 A 
ENDBRANCH  23  24
ENDBRANCH   6  23
ENDBRANCH   4   6
ENDBRANCH   1   2
BRANCH   1  34
ATOM     34  CB  GLU B   4       2.830  89.989  64.624  1.00  0.00     0.045 C 
BRANCH  34  35
ATOM     35  CG  GLU B   4       2.993  88.667  65.355  1.00  0.00     0.116 C 
BRANCH  35  36
ATOM     36  CD  GLU B   4       3.392  88.845  66.808  1.00  0.00     0.172 C 
ATOM     37  OE1 GLU B   4       4.150  87.997  67.323  1.00  0.00    -0.648 OA
ATOM     38  OE2 GLU B   4       2.947  89.833  67.428  1.00  0.00    -0.648 OA
ENDBRANCH  35  36
ENDBRANCH  34  35
ENDBRANCH   1  34
BRANCH   1  39
ATOM     39  C   GLU B   4       4.354  90.428  62.693  1.00  0.00     0.241 C 
ATOM     40  N   THR B   5       4.428  91.748  62.556  1.00  7.70    -0.344 N 
ATOM     41  H   THR B   5       3.627  92.289  62.721  1.00  0.23     0.163 HD
ATOM     42  O   GLU B   4       5.313  89.678  62.506  1.00  0.00    -0.271 OA
BRANCH  40  43
ATOM     43  CA  THR B   5       5.666  92.416  62.167  1.00  7.88     0.205 C 
BRANCH  43  44
ATOM     44  CB  THR B   5       5.402  93.893  61.869  1.00  4.05     0.146 C 
ATOM     45  CG2 THR B   5       4.672  94.117  60.563  1.00  3.72     0.042 C 
BRANCH  44  46
ATOM     46  OG1 THR B   5       4.629  94.481  62.899  1.00  7.31    -0.393 OA
ATOM     47  HG1 THR B   5       4.867  95.406  62.990  1.00  0.23     0.210 HD
ENDBRANCH  44  46
ENDBRANCH  43  44
BRANCH  43  48
ATOM     48  C   THR B   5       6.715  92.287  63.267  1.00  7.05     0.243 C 
ATOM     49  N   TRP B   6       7.824  91.629  62.948  1.00  0.00    -0.346 N 
ATOM     50  H   TRP B   6       7.921  91.264  62.044  1.00  0.23     0.163 HD
ATOM     51  O   THR B   5       6.521  92.771  64.382  1.00  6.06    -0.271 OA
BRANCH  49  52
ATOM     52  CA  TRP B   6       8.899  91.434  63.912  1.00  0.00     0.181 C 
BRANCH  52  53
ATOM     53  CB  TRP B   6       9.271  92.766  64.566  1.00  0.00     0.075 C 
BRANCH  53  54
ATOM     54  CG  TRP B   6      10.535  93.353  64.018  1.00  0.00    -0.028 A 
ATOM     55  CD2 TRP B   6      11.866  92.866  64.225  1.00  0.00    -0.002 A 
ATOM     56  CE2 TRP B   6      12.736  93.719  63.520  1.00  0.00     0.042 A 
ATOM     57  CE3 TRP B   6      12.406  91.792  64.938  1.00  0.00     0.014 A 
ATOM     58  CZ2 TRP B   6      14.115  93.529  63.508  1.00  0.00     0.030 A 
ATOM     59  NE1 TRP B   6      11.970  94.680  62.914  1.00  0.00    -0.365 N 
ATOM     60  CH2 TRP B   6      14.618  92.471  64.215  1.00  0.00     0.002 A 
ATOM     61  CZ3 TRP B   6      13.776  91.605  64.924  1.00  0.00     0.001 A 
ATOM     62  HE1 TRP B   6      12.308  95.410  62.354  1.00  0.23     0.165 HD
ATOM     63  CD1 TRP B   6      10.649  94.453  63.218  1.00  0.00     0.096 A 
ENDBRANCH  53  54
ENDBRANCH  52  53
BRANCH  52  64
ATOM     64  C   TRP B   6       8.499  90.418  64.978  1.00  0.00     0.241 C 
ATOM     65  O   TRP B   6       7.987  89.343  64.664  1.00  0.00    -0.271 OA
ATOM     66  N   VAL B   7       8.741  90.767  66.238  1.00  6.11    -0.344 N 
ATOM     67  H   VAL B   7       9.153  91.637  66.421  1.00  0.23     0.163 HD
BRANCH  66  68
ATOM     68  CA  VAL B   7       8.411  89.888  67.352  1.00  5.65     0.189 C 
BRANCH  68  69
ATOM     69  CB  VAL B   7       9.660  89.561  68.193  1.00  1.15     0.010 C 
ATOM     70  CG1 VAL B   7       9.768  88.061  68.428  1.00  4.96     0.012 C 
ATOM     71  CG2 VAL B   7      10.916  90.093  67.520  1.00  9.83     0.012 C 
ENDBRANCH  68  69
BRANCH  68  72
ATOM     72  C   VAL B   7       7.353  90.517  68.254  1.00  4.44     0.197 C 
ATOM     73  OXT VAL B   7       7.676  90.824  69.420  1.00  0.00    -0.646 OA
ATOM     74  O   VAL B   7       6.210  90.697  67.785  1.00  0.00    -0.646 OA
ENDBRANCH  68  72
ENDBRANCH  66  68
ENDBRANCH  52  64
ENDBRANCH  49  52
ENDBRANCH  43  48
ENDBRANCH  40  43
ENDBRANCH   1  39
TORSDOF 26
ENDMDL
MODEL 3
REMARK VINA RESULT:      -7.1      3.011      6.953
REMARK  26 active torsions:
REMARK  status: ('A' for Active; 'I' for Inactive)
REMARK    1  A    between atoms: N_1  and  CA_2 
REMARK    2  A    between atoms: CA_2  and  CB_5 
REMARK    3  A    between atoms: CA_2  and  C_3 
REMARK       I    between atoms: C_3  and  N_13 
REMARK    4  A    between atoms: CB_5  and  OG1_7 
REMARK    5  A    between atoms: CA_10  and  N_13 
REMARK    6  A    between atoms: CA_10  and  C_11 
REMARK       I    between atoms: C_11  and  N_28 
REMARK    7  A    between atoms: CA_15  and  C_16 
REMARK    8  A    between atoms: CA_15  and  N_28 
REMARK    9  A    between atoms: CA_15  and  CB_17 
REMARK       I    between atoms: C_16  and  N_37 
REMARK   10  A    between atoms: CB_17  and  CG_18 
REMARK   11  A    between atoms: CA_31  and  N_37 
REMARK   12  A    between atoms: CA_31  and  CB_33 
REMARK   13  A    between atoms: CA_31  and  C_32 
REMARK       I    between atoms: C_32  and  N_47 
REMARK   14  A    between atoms: CB_33  and  CG_34 
REMARK   15  A    between atoms: CG_34  and  CD_35 
REMARK   16  A    between atoms: CA_41  and  N_47 
REMARK   17  A    between atoms: CA_41  and  CB_43 
REMARK   18  A    between atoms: CA_41  and  C_42 
REMARK       I    between atoms: C_42  and  N_63 
REMARK   19  A    between atoms: CB_43  and  OG1_49 
REMARK   20  A    between atoms: CA_50  and  CB_52 
REMARK   21  A    between atoms: CA_50  and  N_63 
REMARK   22  A    between atoms: CA_50  and  C_51 
REMARK       I    between atoms: C_51  and  N_72 
REMARK   23  A    between atoms: CB_52  and  CG_53 
REMARK   24  A    between atoms: CA_66  and  CB_68 
REMARK   25  A    between atoms: CA_66  and  C_67 
REMARK   26  A    between atoms: CA_66  and  N_72 
ROOT
ATOM      1  CA  GLU B   4       6.043  88.382  60.208  1.00  0.00     0.177 C 
ENDROOT
BRANCH   1   2
ATOM      2  N   GLU B   4       4.617  88.703  60.215  1.00  0.00    -0.346 N 
ATOM      3  H   GLU B   4       4.313  89.542  59.811  1.00  0.23     0.163 HD
ATOM      4  C   TRP B   3       3.725  87.880  60.761  1.00  0.00     0.241 C 
ATOM      5  O   TRP B   3       4.039  86.812  61.285  1.00  0.00    -0.271 OA
BRANCH   4   6
ATOM      6  CA  TRP B   3       2.267  88.325  60.711  1.00  0.00     0.181 C 
BRANCH   6   7
ATOM      7  N   TRP B   3       1.681  88.360  62.048  1.00  0.00    -0.346 N 
ATOM      8  H   TRP B   3       0.941  87.753  62.262  1.00  0.23     0.163 HD
ATOM      9  C   GLY B   2       2.121  89.200  62.981  1.00  0.00     0.236 C 
ATOM     10  O   GLY B   2       3.040  89.995  62.787  1.00  0.00    -0.272 OA
BRANCH   9  11
ATOM     11  CA  GLY B   2       1.423  89.139  64.325  1.00  0.00     0.225 C 
BRANCH  11  12
ATOM     12  N   GLY B   2       2.346  89.266  65.439  1.00  0.00    -0.350 N 
ATOM     13  H   GLY B   2       2.987  88.548  65.625  1.00  0.23     0.163 HD
ATOM     14  C   THR B   1       2.335  90.342  66.233  1.00  0.00     0.256 C 
ATOM     15  O   THR B   1       1.563  91.290  66.044  1.00  0.00    -0.271 OA
BRANCH  14  16
ATOM     16  CA  THR B   1       3.345  90.346  67.355  1.00  0.00     0.378 C 
BRANCH  16  17
ATOM     17  CB  THR B   1       4.800  90.219  66.790  1.00  0.00     0.159 C 
ATOM     18  CG2 THR B   1       5.917  90.892  67.618  1.00  0.00     0.042 C 
BRANCH  17  19
ATOM     19  OG1 THR B   1       5.188  88.854  66.711  1.00  0.00    -0.393 OA
ATOM     20  HG1 THR B   1       4.640  88.384  67.347  1.00  0.00     0.210 HD
ENDBRANCH  17  19
ENDBRANCH  16  17
BRANCH  16  21
ATOM     21  N   THR B   1       3.071  89.279  68.311  1.00  0.00     0.315 N 
ATOM     22  H   THR B   1       2.583  89.682  69.162  1.00  0.00     0.359 HD
ENDBRANCH  16  21
ENDBRANCH  14  16
ENDBRANCH  11  12
ENDBRANCH   9  11
ENDBRANCH   6   7
BRANCH   6  23
ATOM     23  CB  TRP B   3       2.159  89.695  60.025  1.00  0.00     0.075 C 
BRANCH  23  24
ATOM     24  CG  TRP B   3       1.331  89.689  58.774  1.00  0.00    -0.028 A 
ATOM     25  CD1 TRP B   3       0.553  90.707  58.303  1.00  0.00     0.096 A 
ATOM     26  NE1 TRP B   3      -0.062  90.328  57.132  1.00  0.00    -0.365 N 
ATOM     27  CE2 TRP B   3       0.313  89.046  56.828  1.00  0.00     0.042 A 
ATOM     28  HE1 TRP B   3      -0.669  90.887  56.602  1.00  0.23     0.165 HD
ATOM     29  CZ2 TRP B   3      -0.045  88.237  55.752  1.00  0.00     0.030 A 
ATOM     30  CD2 TRP B   3       1.189  88.610  57.841  1.00  0.00    -0.002 A 
ATOM     31  CH2 TRP B   3       0.489  86.979  55.701  1.00  0.00     0.002 A 
ATOM     32  CZ3 TRP B   3       1.361  86.517  56.694  1.00  0.00     0.001 A 
ATOM     33  CE3 TRP B   3       1.717  87.318  57.763  1.00  0.00     0.014 A 
ENDBRANCH  23  24
ENDBRANCH   6  23
ENDBRANCH   4   6
ENDBRANCH   1   2
BRANCH   1  34
ATOM     34  CB  GLU B   4       6.533  88.148  58.778  1.00  0.00     0.045 C 
BRANCH  34  35
ATOM     35  CG  GLU B   4       7.304  86.849  58.609  1.00  0.00     0.116 C 
BRANCH  35  36
ATOM     36  CD  GLU B   4       6.443  85.621  58.834  1.00  0.00     0.172 C 
ATOM     37  OE1 GLU B   4       5.388  85.508  58.176  1.00  0.00    -0.648 OA
ATOM     38  OE2 GLU B   4       6.824  84.774  59.669  1.00  0.00    -0.648 OA
ENDBRANCH  35  36
ENDBRANCH  34  35
ENDBRANCH   1  34
BRANCH   1  39
ATOM     39  C   GLU B   4       6.855  89.500  60.854  1.00  0.00     0.241 C 
ATOM     40  N   THR B   5       6.267  90.691  60.914  1.00  7.70    -0.344 N 
ATOM     41  H   THR B   5       5.363  90.794  60.549  1.00  0.23     0.163 HD
ATOM     42  O   GLU B   4       7.986  89.286  61.291  1.00  0.00    -0.271 OA
BRANCH  40  43
ATOM     43  CA  THR B   5       6.928  91.849  61.509  1.00  7.88     0.205 C 
BRANCH  43  44
ATOM     44  CB  THR B   5       6.001  93.065  61.474  1.00  4.05     0.146 C 
ATOM     45  CG2 THR B   5       6.051  93.817  60.162  1.00  3.72     0.042 C 
BRANCH  44  46
ATOM     46  OG1 THR B   5       4.657  92.677  61.695  1.00  7.31    -0.393 OA
ATOM     47  HG1 THR B   5       4.122  92.936  60.942  1.00  0.23     0.210 HD
ENDBRANCH  44  46
ENDBRANCH  43  44
BRANCH  43  48
ATOM     48  C   THR B   5       7.342  91.551  62.947  1.00  7.05     0.243 C 
ATOM     49  N   TRP B   6       8.646  91.572  63.200  1.00  0.00    -0.346 N 
ATOM     50  H   TRP B   6       9.272  91.774  62.473  1.00  0.23     0.163 HD
ATOM     51  O   THR B   5       6.497  91.305  63.807  1.00  6.06    -0.271 OA
BRANCH  49  52
ATOM     52  CA  TRP B   6       9.170  91.301  64.532  1.00  0.00     0.181 C 
BRANCH  52  53
ATOM     53  CB  TRP B   6       9.789  89.903  64.581  1.00  0.00     0.075 C 
BRANCH  53  54
ATOM     54  CG  TRP B   6       9.181  89.031  65.637  1.00  0.00    -0.028 A 
ATOM     55  CD2 TRP B   6       9.114  89.306  67.041  1.00  0.00    -0.002 A 
ATOM     56  CE2 TRP B   6       8.454  88.221  67.647  1.00  0.00     0.042 A 
ATOM     57  CE3 TRP B   6       9.550  90.364  67.844  1.00  0.00     0.014 A 
ATOM     58  CZ2 TRP B   6       8.219  88.165  69.018  1.00  0.00     0.030 A 
ATOM     59  NE1 TRP B   6       8.134  87.328  66.658  1.00  0.00    -0.365 N 
ATOM     60  CH2 TRP B   6       8.656  89.214  69.781  1.00  0.00     0.002 A 
ATOM     61  CZ3 TRP B   6       9.315  90.307  69.206  1.00  0.00     0.001 A 
ATOM     62  HE1 TRP B   6       7.668  86.476  66.787  1.00  0.23     0.165 HD
ATOM     63  CD1 TRP B   6       8.575  87.823  65.454  1.00  0.00     0.096 A 
ENDBRANCH  53  54
ENDBRANCH  52  53
BRANCH  52  64
ATOM     64  C   TRP B   6      10.202  92.348  64.936  1.00  0.00     0.241 C 
ATOM     65  O   TRP B   6       9.851  93.449  65.361  1.00  0.00    -0.271 OA
ATOM     66  N   VAL B   7      11.477  91.993  64.804  1.00  6.11    -0.344 N 
ATOM     67  H   VAL B   7      11.691  91.101  64.462  1.00  0.23     0.163 HD
BRANCH  66  68
ATOM     68  CA  VAL B   7      12.564  92.898  65.157  1.00  5.65     0.189 C 
BRANCH  68  69
ATOM     69  CB  VAL B   7      13.852  92.119  65.489  1.00  1.15     0.010 C 
ATOM     70  CG1 VAL B   7      13.608  91.148  66.636  1.00  4.96     0.012 C 
ATOM     71  CG2 VAL B   7      14.367  91.384  64.261  1.00  9.83     0.012 C 
ENDBRANCH  68  69
BRANCH  68  72
ATOM     72  C   VAL B   7      12.853  93.880  64.026  1.00  4.44     0.197 C 
ATOM     73  OXT VAL B   7      12.268  93.716  62.936  1.00  0.00    -0.646 OA
ATOM     74  O   VAL B   7      13.662  94.806  64.242  1.00  0.00    -0.646 OA
ENDBRANCH  68  72
ENDBRANCH  66  68
ENDBRANCH  52  64
ENDBRANCH  49  52
ENDBRANCH  43  48
ENDBRANCH  40  43
ENDBRANCH   1  39
TORSDOF 26
ENDMDL
MODEL 4
REMARK VINA RESULT:      -7.1      2.053      2.837
REMARK  26 active torsions:
REMARK  status: ('A' for Active; 'I' for Inactive)
REMARK    1  A    between atoms: N_1  and  CA_2 
REMARK    2  A    between atoms: CA_2  and  CB_5 
REMARK    3  A    between atoms: CA_2  and  C_3 
REMARK       I    between atoms: C_3  and  N_13 
REMARK    4  A    between atoms: CB_5  and  OG1_7 
REMARK    5  A    between atoms: CA_10  and  N_13 
REMARK    6  A    between atoms: CA_10  and  C_11 
REMARK       I    between atoms: C_11  and  N_28 
REMARK    7  A    between atoms: CA_15  and  C_16 
REMARK    8  A    between atoms: CA_15  and  N_28 
REMARK    9  A    between atoms: CA_15  and  CB_17 
REMARK       I    between atoms: C_16  and  N_37 
REMARK   10  A    between atoms: CB_17  and  CG_18 
REMARK   11  A    between atoms: CA_31  and  N_37 
REMARK   12  A    between atoms: CA_31  and  CB_33 
REMARK   13  A    between atoms: CA_31  and  C_32 
REMARK       I    between atoms: C_32  and  N_47 
REMARK   14  A    between atoms: CB_33  and  CG_34 
REMARK   15  A    between atoms: CG_34  and  CD_35 
REMARK   16  A    between atoms: CA_41  and  N_47 
REMARK   17  A    between atoms: CA_41  and  CB_43 
REMARK   18  A    between atoms: CA_41  and  C_42 
REMARK       I    between atoms: C_42  and  N_63 
REMARK   19  A    between atoms: CB_43  and  OG1_49 
REMARK   20  A    between atoms: CA_50  and  CB_52 
REMARK   21  A    between atoms: CA_50  and  N_63 
REMARK   22  A    between atoms: CA_50  and  C_51 
REMARK       I    between atoms: C_51  and  N_72 
REMARK   23  A    between atoms: CB_52  and  CG_53 
REMARK   24  A    between atoms: CA_66  and  CB_68 
REMARK   25  A    between atoms: CA_66  and  C_67 
REMARK   26  A    between atoms: CA_66  and  N_72 
ROOT
ATOM      1  CA  GLU B   4       2.365  89.954  64.223  1.00  0.00     0.177 C 
ENDROOT
BRANCH   1   2
ATOM      2  N   GLU B   4       2.181  88.510  64.102  1.00  0.00    -0.346 N 
ATOM      3  H   GLU B   4       2.779  87.908  64.593  1.00  0.23     0.163 HD
ATOM      4  C   TRP B   3       1.221  87.996  63.337  1.00  0.00     0.241 C 
ATOM      5  O   TRP B   3       0.438  88.694  62.695  1.00  0.00    -0.271 OA
BRANCH   4   6
ATOM      6  CA  TRP B   3       1.129  86.474  63.289  1.00  0.00     0.181 C 
BRANCH   6   7
ATOM      7  N   TRP B   3       1.675  85.954  62.038  1.00  0.00    -0.346 N 
ATOM      8  H   TRP B   3       1.087  85.458  61.429  1.00  0.23     0.163 HD
ATOM      9  C   GLY B   2       2.952  86.129  61.709  1.00  0.00     0.236 C 
ATOM     10  O   GLY B   2       3.752  86.733  62.421  1.00  0.00    -0.272 OA
BRANCH   9  11
ATOM     11  CA  GLY B   2       3.393  85.535  60.385  1.00  0.00     0.225 C 
BRANCH  11  12
ATOM     12  N   GLY B   2       4.777  85.840  60.070  1.00  0.00    -0.350 N 
ATOM     13  H   GLY B   2       5.494  85.277  60.429  1.00  0.23     0.163 HD
ATOM     14  C   THR B   1       5.102  86.889  59.306  1.00  0.00     0.256 C 
ATOM     15  O   THR B   1       4.245  87.630  58.809  1.00  0.00    -0.271 OA
BRANCH  14  16
ATOM     16  CA  THR B   1       6.577  87.095  59.059  1.00  0.00     0.378 C 
BRANCH  16  17
ATOM     17  CB  THR B   1       7.182  88.087  60.109  1.00  0.00     0.159 C 
ATOM     18  CG2 THR B   1       6.892  89.587  59.879  1.00  0.00     0.042 C 
BRANCH  17  19
ATOM     19  OG1 THR B   1       6.663  87.818  61.405  1.00  0.00    -0.393 OA
ATOM     20  HG1 THR B   1       7.043  86.977  61.675  1.00  0.00     0.210 HD
ENDBRANCH  17  19
ENDBRANCH  16  17
BRANCH  16  21
ATOM     21  N   THR B   1       6.819  87.574  57.702  1.00  0.00     0.315 N 
ATOM     22  H   THR B   1       6.400  88.541  57.588  1.00  0.00     0.359 HD
ENDBRANCH  16  21
ENDBRANCH  14  16
ENDBRANCH  11  12
ENDBRANCH   9  11
ENDBRANCH   6   7
BRANCH   6  23
ATOM     23  CB  TRP B   3       1.849  85.866  64.501  1.00  0.00     0.075 C 
BRANCH  23  24
ATOM     24  CG  TRP B   3       1.379  84.487  64.862  1.00  0.00    -0.028 A 
ATOM     25  CD1 TRP B   3       0.348  84.167  65.698  1.00  0.00     0.096 A 
ATOM     26  NE1 TRP B   3       0.222  82.800  65.790  1.00  0.00    -0.365 N 
ATOM     27  CE2 TRP B   3       1.182  82.212  65.009  1.00  0.00     0.042 A 
ATOM     28  HE1 TRP B   3      -0.447  82.326  66.328  1.00  0.23     0.165 HD
ATOM     29  CZ2 TRP B   3       1.452  80.865  64.781  1.00  0.00     0.030 A 
ATOM     30  CD2 TRP B   3       1.931  83.244  64.411  1.00  0.00    -0.002 A 
ATOM     31  CH2 TRP B   3       2.488  80.561  63.940  1.00  0.00     0.002 A 
ATOM     32  CZ3 TRP B   3       3.251  81.564  63.332  1.00  0.00     0.001 A 
ATOM     33  CE3 TRP B   3       2.984  82.902  63.557  1.00  0.00     0.014 A 
ENDBRANCH  23  24
ENDBRANCH   6  23
ENDBRANCH   4   6
ENDBRANCH   1   2
BRANCH   1  34
ATOM     34  CB  GLU B   4       2.691  90.334  65.668  1.00  0.00     0.045 C 
BRANCH  34  35
ATOM     35  CG  GLU B   4       1.890  89.550  66.694  1.00  0.00     0.116 C 
BRANCH  35  36
ATOM     36  CD  GLU B   4       2.734  88.544  67.453  1.00  0.00     0.172 C 
ATOM     37  OE1 GLU B   4       3.743  88.071  66.889  1.00  0.00    -0.648 OA
ATOM     38  OE2 GLU B   4       2.386  88.231  68.611  1.00  0.00    -0.648 OA
ENDBRANCH  35  36
ENDBRANCH  34  35
ENDBRANCH   1  34
BRANCH   1  39
ATOM     39  C   GLU B   4       3.479  90.439  63.300  1.00  0.00     0.241 C 
ATOM     40  N   THR B   5       4.376  91.257  63.843  1.00  7.70    -0.344 N 
ATOM     41  H   THR B   5       4.282  91.506  64.787  1.00  0.23     0.163 HD
ATOM     42  O   GLU B   4       3.526  90.077  62.124  1.00  0.00    -0.271 OA
BRANCH  40  43
ATOM     43  CA  THR B   5       5.496  91.794  63.076  1.00  7.88     0.205 C 
BRANCH  43  44
ATOM     44  CB  THR B   5       5.456  93.323  63.078  1.00  4.05     0.146 C 
ATOM     45  CG2 THR B   5       4.582  93.900  61.985  1.00  3.72     0.042 C 
BRANCH  44  46
ATOM     46  OG1 THR B   5       4.971  93.810  64.317  1.00  7.31    -0.393 OA
ATOM     47  HG1 THR B   5       5.633  94.376  64.719  1.00  0.23     0.210 HD
ENDBRANCH  44  46
ENDBRANCH  43  44
BRANCH  43  48
ATOM     48  C   THR B   5       6.823  91.307  63.650  1.00  7.05     0.243 C 
ATOM     49  N   TRP B   6       6.925  91.305  64.974  1.00  0.00    -0.346 N 
ATOM     50  H   TRP B   6       6.165  91.608  65.514  1.00  0.23     0.163 HD
ATOM     51  O   THR B   5       7.735  90.944  62.908  1.00  6.06    -0.271 OA
BRANCH  49  52
ATOM     52  CA  TRP B   6       8.142  90.867  65.645  1.00  0.00     0.181 C 
BRANCH  52  53
ATOM     53  CB  TRP B   6       8.908  92.074  66.191  1.00  0.00     0.075 C 
BRANCH  53  54
ATOM     54  CG  TRP B   6      10.092  92.443  65.350  1.00  0.00    -0.028 A 
ATOM     55  CD2 TRP B   6      11.444  92.009  65.537  1.00  0.00    -0.002 A 
ATOM     56  CE2 TRP B   6      12.215  92.595  64.514  1.00  0.00     0.042 A 
ATOM     57  CE3 TRP B   6      12.077  91.184  66.470  1.00  0.00     0.014 A 
ATOM     58  CZ2 TRP B   6      13.585  92.379  64.400  1.00  0.00     0.030 A 
ATOM     59  NE1 TRP B   6      11.370  93.349  63.742  1.00  0.00    -0.365 N 
ATOM     60  CH2 TRP B   6      14.181  91.567  65.327  1.00  0.00     0.002 A 
ATOM     61  CZ3 TRP B   6      13.440  90.971  66.354  1.00  0.00     0.001 A 
ATOM     62  HE1 TRP B   6      11.631  93.872  62.955  1.00  0.23     0.165 HD
ATOM     63  CD1 TRP B   6      10.097  93.252  64.251  1.00  0.00     0.096 A 
ENDBRANCH  53  54
ENDBRANCH  52  53
BRANCH  52  64
ATOM     64  C   TRP B   6       7.822  89.893  66.775  1.00  0.00     0.241 C 
ATOM     65  O   TRP B   6       6.724  89.913  67.332  1.00  0.00    -0.271 OA
ATOM     66  N   VAL B   7       8.788  89.040  67.102  1.00  6.11    -0.344 N 
ATOM     67  H   VAL B   7       9.639  89.075  66.619  1.00  0.23     0.163 HD
BRANCH  66  68
ATOM     68  CA  VAL B   7       8.612  88.055  68.161  1.00  5.65     0.189 C 
BRANCH  68  69
ATOM     69  CB  VAL B   7       9.061  86.654  67.700  1.00  1.15     0.010 C 
ATOM     70  CG1 VAL B   7       8.187  85.579  68.330  1.00  4.96     0.012 C 
ATOM     71  CG2 VAL B   7       9.031  86.553  66.182  1.00  9.83     0.012 C 
ENDBRANCH  68  69
BRANCH  68  72
ATOM     72  C   VAL B   7       9.396  88.443  69.411  1.00  4.44     0.197 C 
ATOM     73  OXT VAL B   7       8.947  89.358  70.131  1.00  0.00    -0.646 OA
ATOM     74  O   VAL B   7      10.454  87.826  69.658  1.00  0.00    -0.646 OA
ENDBRANCH  68  72
ENDBRANCH  66  68
ENDBRANCH  52  64
ENDBRANCH  49  52
ENDBRANCH  43  48
ENDBRANCH  40  43
ENDBRANCH   1  39
TORSDOF 26
ENDMDL
MODEL 5
REMARK VINA RESULT:      -6.1      2.968      7.199
REMARK  26 active torsions:
REMARK  status: ('A' for Active; 'I' for Inactive)
REMARK    1  A    between atoms: N_1  and  CA_2 
REMARK    2  A    between atoms: CA_2  and  CB_5 
REMARK    3  A    between atoms: CA_2  and  C_3 
REMARK       I    between atoms: C_3  and  N_13 
REMARK    4  A    between atoms: CB_5  and  OG1_7 
REMARK    5  A    between atoms: CA_10  and  N_13 
REMARK    6  A    between atoms: CA_10  and  C_11 
REMARK       I    between atoms: C_11  and  N_28 
REMARK    7  A    between atoms: CA_15  and  C_16 
REMARK    8  A    between atoms: CA_15  and  N_28 
REMARK    9  A    between atoms: CA_15  and  CB_17 
REMARK       I    between atoms: C_16  and  N_37 
REMARK   10  A    between atoms: CB_17  and  CG_18 
REMARK   11  A    between atoms: CA_31  and  N_37 
REMARK   12  A    between atoms: CA_31  and  CB_33 
REMARK   13  A    between atoms: CA_31  and  C_32 
REMARK       I    between atoms: C_32  and  N_47 
REMARK   14  A    between atoms: CB_33  and  CG_34 
REMARK   15  A    between atoms: CG_34  and  CD_35 
REMARK   16  A    between atoms: CA_41  and  N_47 
REMARK   17  A    between atoms: CA_41  and  CB_43 
REMARK   18  A    between atoms: CA_41  and  C_42 
REMARK       I    between atoms: C_42  and  N_63 
REMARK   19  A    between atoms: CB_43  and  OG1_49 
REMARK   20  A    between atoms: CA_50  and  CB_52 
REMARK   21  A    between atoms: CA_50  and  N_63 
REMARK   22  A    between atoms: CA_50  and  C_51 
REMARK       I    between atoms: C_51  and  N_72 
REMARK   23  A    between atoms: CB_52  and  CG_53 
REMARK   24  A    between atoms: CA_66  and  CB_68 
REMARK   25  A    between atoms: CA_66  and  C_67 
REMARK   26  A    between atoms: CA_66  and  N_72 
ROOT
ATOM      1  CA  GLU B   4       6.215  88.790  61.084  1.00  0.00     0.177 C 
ENDROOT
BRANCH   1   2
ATOM      2  N   GLU B   4       4.797  89.022  60.818  1.00  0.00    -0.346 N 
ATOM      3  H   GLU B   4       4.518  89.870  60.413  1.00  0.23     0.163 HD
ATOM      4  C   TRP B   3       3.879  88.108  61.118  1.00  0.00     0.241 C 
ATOM      5  O   TRP B   3       4.160  87.025  61.629  1.00  0.00    -0.271 OA
BRANCH   4   6
ATOM      6  CA  TRP B   3       2.431  88.465  60.796  1.00  0.00     0.181 C 
BRANCH   6   7
ATOM      7  N   TRP B   3       1.622  88.529  62.011  1.00  0.00    -0.346 N 
ATOM      8  H   TRP B   3       0.831  87.955  62.089  1.00  0.23     0.163 HD
ATOM      9  C   GLY B   2       1.929  89.353  63.010  1.00  0.00     0.236 C 
ATOM     10  O   GLY B   2       2.900  90.106  62.984  1.00  0.00    -0.272 OA
BRANCH   9  11
ATOM     11  CA  GLY B   2       1.004  89.324  64.212  1.00  0.00     0.225 C 
BRANCH  11  12
ATOM     12  N   GLY B   2       1.553  88.562  65.319  1.00  0.00    -0.350 N 
ATOM     13  H   GLY B   2       2.028  89.024  66.041  1.00  0.23     0.163 HD
ATOM     14  C   THR B   1       1.438  87.230  65.372  1.00  0.00     0.256 C 
ATOM     15  O   THR B   1       0.838  86.588  64.503  1.00  0.00    -0.271 OA
BRANCH  14  16
ATOM     16  CA  THR B   1       2.056  86.561  66.577  1.00  0.00     0.378 C 
BRANCH  16  17
ATOM     17  CB  THR B   1       0.967  86.263  67.663  1.00  0.00     0.159 C 
ATOM     18  CG2 THR B   1       1.130  84.945  68.451  1.00  0.00     0.042 C 
BRANCH  17  19
ATOM     19  OG1 THR B   1       0.966  87.277  68.660  1.00  0.00    -0.393 OA
ATOM     20  HG1 THR B   1       0.817  88.106  68.196  1.00  0.00     0.210 HD
ENDBRANCH  17  19
ENDBRANCH  16  17
BRANCH  16  21
ATOM     21  N   THR B   1       3.129  87.377  67.137  1.00  0.00     0.315 N 
ATOM     22  H   THR B   1       3.099  88.345  66.706  1.00  0.00     0.359 HD
ENDBRANCH  16  21
ENDBRANCH  14  16
ENDBRANCH  11  12
ENDBRANCH   9  11
ENDBRANCH   6   7
BRANCH   6  23
ATOM     23  CB  TRP B   3       2.376  89.793  60.027  1.00  0.00     0.075 C 
BRANCH  23  24
ATOM     24  CG  TRP B   3       1.468  89.771  58.833  1.00  0.00    -0.028 A 
ATOM     25  CD1 TRP B   3       0.632  90.769  58.422  1.00  0.00     0.096 A 
ATOM     26  NE1 TRP B   3      -0.048  90.380  57.291  1.00  0.00    -0.365 N 
ATOM     27  CE2 TRP B   3       0.342  89.111  56.953  1.00  0.00     0.042 A 
ATOM     28  HE1 TRP B   3      -0.704  90.925  56.807  1.00  0.23     0.165 HD
ATOM     29  CZ2 TRP B   3      -0.062  88.299  55.896  1.00  0.00     0.030 A 
ATOM     30  CD2 TRP B   3       1.295  88.695  57.903  1.00  0.00    -0.002 A 
ATOM     31  CH2 TRP B   3       0.503  87.057  55.800  1.00  0.00     0.002 A 
ATOM     32  CZ3 TRP B   3       1.451  86.614  56.730  1.00  0.00     0.001 A 
ATOM     33  CE3 TRP B   3       1.853  87.418  57.779  1.00  0.00     0.014 A 
ENDBRANCH  23  24
ENDBRANCH   6  23
ENDBRANCH   4   6
ENDBRANCH   1   2
BRANCH   1  34
ATOM     34  CB  GLU B   4       6.904  88.205  59.850  1.00  0.00     0.045 C 
BRANCH  34  35
ATOM     35  CG  GLU B   4       7.236  86.728  59.987  1.00  0.00     0.116 C 
BRANCH  35  36
ATOM     36  CD  GLU B   4       7.140  85.982  58.670  1.00  0.00     0.172 C 
ATOM     37  OE1 GLU B   4       7.213  84.736  58.688  1.00  0.00    -0.648 OA
ATOM     38  OE2 GLU B   4       6.991  86.644  57.622  1.00  0.00    -0.648 OA
ENDBRANCH  35  36
ENDBRANCH  34  35
ENDBRANCH   1  34
BRANCH   1  39
ATOM     39  C   GLU B   4       6.910  90.085  61.496  1.00  0.00     0.241 C 
ATOM     40  N   THR B   5       6.283  91.213  61.178  1.00  7.70    -0.344 N 
ATOM     41  H   THR B   5       5.426  91.163  60.704  1.00  0.23     0.163 HD
ATOM     42  O   GLU B   4       7.987  90.060  62.092  1.00  0.00    -0.271 OA
BRANCH  40  43
ATOM     43  CA  THR B   5       6.832  92.523  61.514  1.00  7.88     0.205 C 
BRANCH  43  44
ATOM     44  CB  THR B   5       5.799  93.618  61.240  1.00  4.05     0.146 C 
ATOM     45  CG2 THR B   5       5.810  94.106  59.808  1.00  3.72     0.042 C 
BRANCH  44  46
ATOM     46  OG1 THR B   5       4.491  93.154  61.525  1.00  7.31    -0.393 OA
ATOM     47  HG1 THR B   5       4.543  92.316  61.989  1.00  0.23     0.210 HD
ENDBRANCH  44  46
ENDBRANCH  43  44
BRANCH  43  48
ATOM     48  C   THR B   5       7.261  92.567  62.977  1.00  7.05     0.243 C 
ATOM     49  N   TRP B   6       8.569  92.573  63.207  1.00  0.00    -0.346 N 
ATOM     50  H   TRP B   6       9.189  92.551  62.447  1.00  0.23     0.163 HD
ATOM     51  O   THR B   5       6.423  92.591  63.878  1.00  6.06    -0.271 OA
BRANCH  49  52
ATOM     52  CA  TRP B   6       9.107  92.609  64.561  1.00  0.00     0.181 C 
BRANCH  52  53
ATOM     53  CB  TRP B   6       9.587  91.218  64.975  1.00  0.00     0.075 C 
BRANCH  53  54
ATOM     54  CG  TRP B   6       9.281  90.896  66.406  1.00  0.00    -0.028 A 
ATOM     55  CD2 TRP B   6       7.989  90.639  66.969  1.00  0.00    -0.002 A 
ATOM     56  CE2 TRP B   6       8.177  90.377  68.339  1.00  0.00     0.042 A 
ATOM     57  CE3 TRP B   6       6.693  90.605  66.447  1.00  0.00     0.014 A 
ATOM     58  CZ2 TRP B   6       7.116  90.085  69.192  1.00  0.00     0.030 A 
ATOM     59  NE1 TRP B   6       9.520  90.470  68.597  1.00  0.00    -0.365 N 
ATOM     60  CH2 TRP B   6       5.857  90.059  68.656  1.00  0.00     0.002 A 
ATOM     61  CZ3 TRP B   6       5.641  90.315  67.297  1.00  0.00     0.001 A 
ATOM     62  HE1 TRP B   6       9.943  90.337  69.471  1.00  0.23     0.165 HD
ATOM     63  CD1 TRP B   6      10.175  90.783  67.431  1.00  0.00     0.096 A 
ENDBRANCH  53  54
ENDBRANCH  52  53
BRANCH  52  64
ATOM     64  C   TRP B   6      10.249  93.614  64.667  1.00  0.00     0.241 C 
ATOM     65  O   TRP B   6      10.090  94.692  65.240  1.00  0.00    -0.271 OA
ATOM     66  N   VAL B   7      11.402  93.248  64.115  1.00  6.11    -0.344 N 
ATOM     67  H   VAL B   7      11.465  92.375  63.675  1.00  0.23     0.163 HD
BRANCH  66  68
ATOM     68  CA  VAL B   7      12.575  94.112  64.148  1.00  5.65     0.189 C 
BRANCH  68  69
ATOM     69  CB  VAL B   7      13.876  93.288  64.075  1.00  1.15     0.010 C 
ATOM     70  CG1 VAL B   7      13.851  92.158  65.094  1.00  4.96     0.012 C 
ATOM     71  CG2 VAL B   7      14.089  92.743  62.671  1.00  9.83     0.012 C 
ENDBRANCH  68  69
BRANCH  68  72
ATOM     72  C   VAL B   7      12.554  95.114  62.998  1.00  4.44     0.197 C 
ATOM     73  OXT VAL B   7      13.407  96.024  62.990  1.00  0.00    -0.646 OA
ATOM     74  O   VAL B   7      11.683  94.977  62.113  1.00  0.00    -0.646 OA
ENDBRANCH  68  72
ENDBRANCH  66  68
ENDBRANCH  52  64
ENDBRANCH  49  52
ENDBRANCH  43  48
ENDBRANCH  40  43
ENDBRANCH   1  39
TORSDOF 26
ENDMDL
MODEL 6
REMARK VINA RESULT:      -5.3      3.118      7.000
REMARK  26 active torsions:
REMARK  status: ('A' for Active; 'I' for Inactive)
REMARK    1  A    between atoms: N_1  and  CA_2 
REMARK    2  A    between atoms: CA_2  and  CB_5 
REMARK    3  A    between atoms: CA_2  and  C_3 
REMARK       I    between atoms: C_3  and  N_13 
REMARK    4  A    between atoms: CB_5  and  OG1_7 
REMARK    5  A    between atoms: CA_10  and  N_13 
REMARK    6  A    between atoms: CA_10  and  C_11 
REMARK       I    between atoms: C_11  and  N_28 
REMARK    7  A    between atoms: CA_15  and  C_16 
REMARK    8  A    between atoms: CA_15  and  N_28 
REMARK    9  A    between atoms: CA_15  and  CB_17 
REMARK       I    between atoms: C_16  and  N_37 
REMARK   10  A    between atoms: CB_17  and  CG_18 
REMARK   11  A    between atoms: CA_31  and  N_37 
REMARK   12  A    between atoms: CA_31  and  CB_33 
REMARK   13  A    between atoms: CA_31  and  C_32 
REMARK       I    between atoms: C_32  and  N_47 
REMARK   14  A    between atoms: CB_33  and  CG_34 
REMARK   15  A    between atoms: CG_34  and  CD_35 
REMARK   16  A    between atoms: CA_41  and  N_47 
REMARK   17  A    between atoms: CA_41  and  CB_43 
REMARK   18  A    between atoms: CA_41  and  C_42 
REMARK       I    between atoms: C_42  and  N_63 
REMARK   19  A    between atoms: CB_43  and  OG1_49 
REMARK   20  A    between atoms: CA_50  and  CB_52 
REMARK   21  A    between atoms: CA_50  and  N_63 
REMARK   22  A    between atoms: CA_50  and  C_51 
REMARK       I    between atoms: C_51  and  N_72 
REMARK   23  A    between atoms: CB_52  and  CG_53 
REMARK   24  A    between atoms: CA_66  and  CB_68 
REMARK   25  A    between atoms: CA_66  and  C_67 
REMARK   26  A    between atoms: CA_66  and  N_72 
ROOT
ATOM      1  CA  GLU B   4       6.213  89.319  61.665  1.00  0.00     0.177 C 
ENDROOT
BRANCH   1   2
ATOM      2  N   GLU B   4       4.809  89.386  61.264  1.00  0.00    -0.346 N 
ATOM      3  H   GLU B   4       4.493  90.161  60.755  1.00  0.23     0.163 HD
ATOM      4  C   TRP B   3       3.953  88.417  61.578  1.00  0.00     0.241 C 
ATOM      5  O   TRP B   3       4.284  87.418  62.215  1.00  0.00    -0.271 OA
BRANCH   4   6
ATOM      6  CA  TRP B   3       2.514  88.599  61.107  1.00  0.00     0.181 C 
BRANCH   6   7
ATOM      7  N   TRP B   3       1.589  88.618  62.236  1.00  0.00    -0.346 N 
ATOM      8  H   TRP B   3       0.809  88.023  62.226  1.00  0.23     0.163 HD
ATOM      9  C   GLY B   2       1.773  89.428  63.276  1.00  0.00     0.236 C 
ATOM     10  O   GLY B   2       2.722  90.206  63.359  1.00  0.00    -0.272 OA
BRANCH   9  11
ATOM     11  CA  GLY B   2       0.737  89.352  64.380  1.00  0.00     0.225 C 
BRANCH  11  12
ATOM     12  N   GLY B   2       1.327  89.099  65.682  1.00  0.00    -0.350 N 
ATOM     13  H   GLY B   2       1.584  88.187  65.931  1.00  0.23     0.163 HD
ATOM     14  C   THR B   1       1.516  90.086  66.565  1.00  0.00     0.256 C 
ATOM     15  O   THR B   1       1.227  91.261  66.308  1.00  0.00    -0.271 OA
BRANCH  14  16
ATOM     16  CA  THR B   1       2.136  89.685  67.882  1.00  0.00     0.378 C 
BRANCH  16  17
ATOM     17  CB  THR B   1       3.693  89.847  67.832  1.00  0.00     0.159 C 
ATOM     18  CG2 THR B   1       4.491  88.632  67.311  1.00  0.00     0.042 C 
BRANCH  17  19
ATOM     19  OG1 THR B   1       4.057  90.912  66.963  1.00  0.00    -0.393 OA
ATOM     20  HG1 THR B   1       4.668  91.464  67.458  1.00  0.00     0.210 HD
ENDBRANCH  17  19
ENDBRANCH  16  17
BRANCH  16  21
ATOM     21  N   THR B   1       1.774  88.317  68.237  1.00  0.00     0.315 N 
ATOM     22  H   THR B   1       2.159  87.649  67.510  1.00  0.00     0.359 HD
ENDBRANCH  16  21
ENDBRANCH  14  16
ENDBRANCH  11  12
ENDBRANCH   9  11
ENDBRANCH   6   7
BRANCH   6  23
ATOM     23  CB  TRP B   3       2.393  89.884  60.274  1.00  0.00     0.075 C 
BRANCH  23  24
ATOM     24  CG  TRP B   3       1.587  89.725  59.018  1.00  0.00    -0.028 A 
ATOM     25  CD1 TRP B   3       0.790  90.666  58.432  1.00  0.00     0.096 A 
ATOM     26  NE1 TRP B   3       0.205  90.151  57.299  1.00  0.00    -0.365 N 
ATOM     27  CE2 TRP B   3       0.618  88.855  57.137  1.00  0.00     0.042 A 
ATOM     28  HE1 TRP B   3      -0.407  90.635  56.706  1.00  0.23     0.165 HD
ATOM     29  CZ2 TRP B   3       0.301  87.929  56.145  1.00  0.00     0.030 A 
ATOM     30  CD2 TRP B   3       1.488  88.552  58.202  1.00  0.00    -0.002 A 
ATOM     31  CH2 TRP B   3       0.868  86.688  56.234  1.00  0.00     0.002 A 
ATOM     32  CZ3 TRP B   3       1.735  86.356  57.282  1.00  0.00     0.001 A 
ATOM     33  CE3 TRP B   3       2.051  87.273  58.266  1.00  0.00     0.014 A 
ENDBRANCH  23  24
ENDBRANCH   6  23
ENDBRANCH   4   6
ENDBRANCH   1   2
BRANCH   1  34
ATOM     34  CB  GLU B   4       7.105  89.043  60.454  1.00  0.00     0.045 C 
BRANCH  34  35
ATOM     35  CG  GLU B   4       6.531  88.004  59.506  1.00  0.00     0.116 C 
BRANCH  35  36
ATOM     36  CD  GLU B   4       7.173  88.045  58.132  1.00  0.00     0.172 C 
ATOM     37  OE1 GLU B   4       7.090  87.031  57.408  1.00  0.00    -0.648 OA
ATOM     38  OE2 GLU B   4       7.760  89.090  57.782  1.00  0.00    -0.648 OA
ENDBRANCH  35  36
ENDBRANCH  34  35
ENDBRANCH   1  34
BRANCH   1  39
ATOM     39  C   GLU B   4       6.647  90.617  62.339  1.00  0.00     0.241 C 
ATOM     40  N   THR B   5       6.324  91.742  61.708  1.00  7.70    -0.344 N 
ATOM     41  H   THR B   5       5.835  91.688  60.860  1.00  0.23     0.163 HD
ATOM     42  O   GLU B   4       7.258  90.599  63.409  1.00  0.00    -0.271 OA
BRANCH  40  43
ATOM     43  CA  THR B   5       6.674  93.055  62.242  1.00  7.88     0.205 C 
BRANCH  43  44
ATOM     44  CB  THR B   5       5.411  93.815  62.653  1.00  4.05     0.146 C 
ATOM     45  CG2 THR B   5       4.573  94.263  61.476  1.00  3.72     0.042 C 
BRANCH  44  46
ATOM     46  OG1 THR B   5       4.591  93.010  63.482  1.00  7.31    -0.393 OA
ATOM     47  HG1 THR B   5       3.676  93.284  63.389  1.00  0.23     0.210 HD
ENDBRANCH  44  46
ENDBRANCH  43  44
BRANCH  43  48
ATOM     48  C   THR B   5       7.611  92.917  63.437  1.00  7.05     0.243 C 
ATOM     49  N   TRP B   6       8.909  92.853  63.163  1.00  0.00    -0.346 N 
ATOM     50  H   TRP B   6       9.204  92.896  62.229  1.00  0.23     0.163 HD
ATOM     51  O   THR B   5       7.166  92.867  64.584  1.00  6.06    -0.271 OA
BRANCH  49  52
ATOM     52  CA  TRP B   6       9.906  92.716  64.217  1.00  0.00     0.181 C 
BRANCH  52  53
ATOM     53  CB  TRP B   6      10.575  91.343  64.136  1.00  0.00     0.075 C 
BRANCH  53  54
ATOM     54  CG  TRP B   6      10.778  90.712  65.479  1.00  0.00    -0.028 A 
ATOM     55  CD2 TRP B   6       9.785  90.522  66.495  1.00  0.00    -0.002 A 
ATOM     56  CE2 TRP B   6      10.416  89.886  67.581  1.00  0.00     0.042 A 
ATOM     57  CE3 TRP B   6       8.425  90.829  66.591  1.00  0.00     0.014 A 
ATOM     58  CZ2 TRP B   6       9.733  89.552  68.746  1.00  0.00     0.030 A 
ATOM     59  NE1 TRP B   6      11.731  89.698  67.240  1.00  0.00    -0.365 N 
ATOM     60  CH2 TRP B   6       8.402  89.864  68.815  1.00  0.00     0.002 A 
ATOM     61  CZ3 TRP B   6       7.748  90.496  67.751  1.00  0.00     0.001 A 
ATOM     62  HE1 TRP B   6      12.412  89.276  67.806  1.00  0.23     0.165 HD
ATOM     63  CD1 TRP B   6      11.939  90.197  65.977  1.00  0.00     0.096 A 
ENDBRANCH  53  54
ENDBRANCH  52  53
BRANCH  52  64
ATOM     64  C   TRP B   6      10.956  93.819  64.121  1.00  0.00     0.241 C 
ATOM     65  O   TRP B   6      10.641  95.002  64.248  1.00  0.00    -0.271 OA
ATOM     66  N   VAL B   7      12.205  93.419  63.901  1.00  6.11    -0.344 N 
ATOM     67  H   VAL B   7      12.390  92.462  63.811  1.00  0.23     0.163 HD
BRANCH  66  68
ATOM     68  CA  VAL B   7      13.304  94.370  63.791  1.00  5.65     0.189 C 
BRANCH  68  69
ATOM     69  CB  VAL B   7      14.648  93.645  63.582  1.00  1.15     0.010 C 
ATOM     70  CG1 VAL B   7      14.429  92.145  63.438  1.00  4.96     0.012 C 
ATOM     71  CG2 VAL B   7      15.377  94.202  62.368  1.00  9.83     0.012 C 
ENDBRANCH  68  69
BRANCH  68  72
ATOM     72  C   VAL B   7      13.078  95.343  62.638  1.00  4.44     0.197 C 
ATOM     73  OXT VAL B   7      12.519  94.918  61.606  1.00  0.00    -0.646 OA
ATOM     74  O   VAL B   7      13.461  96.523  62.779  1.00  0.00    -0.646 OA
ENDBRANCH  68  72
ENDBRANCH  66  68
ENDBRANCH  52  64
ENDBRANCH  49  52
ENDBRANCH  43  48
ENDBRANCH  40  43
ENDBRANCH   1  39
TORSDOF 26
ENDMDL
