REMARK  28 active torsions:
REMARK  status: ('A' for Active; 'I' for Inactive)
REMARK    1  A    between atoms: N_1  and  CA_2 
REMARK    2  A    between atoms: CA_2  and  CB_5 
REMARK    3  A    between atoms: CA_2  and  C_3 
REMARK       I    between atoms: C_3  and  N_21 
REMARK    4  A    between atoms: CB_5  and  CG_6 
REMARK    5  A    between atoms: CG_6  and  CD_7 
REMARK    6  A    between atoms: CD_7  and  NE_8 
REMARK       I    between atoms: NE_8  and  CZ_9 
REMARK       I    between atoms: CZ_9  and  NH1_10 
REMARK    7  A    between atoms: CA_18  and  N_21 
REMARK    8  A    between atoms: CA_18  and  C_19 
REMARK       I    between atoms: C_19  and  N_36 
REMARK    9  A    between atoms: CA_23  and  CB_25 
REMARK   10  A    between atoms: CA_23  and  N_36 
REMARK   11  A    between atoms: CA_23  and  C_24 
REMARK       I    between atoms: C_24  and  N_45 
REMARK   12  A    between atoms: CB_25  and  CG_26 
REMARK   13  A    between atoms: CA_39  and  N_45 
REMARK   14  A    between atoms: CA_39  and  CB_41 
REMARK   15  A    between atoms: CA_39  and  C_40 
REMARK       I    between atoms: C_40  and  N_55 
REMARK   16  A    between atoms: CB_41  and  CG_42 
REMARK   17  A    between atoms: CG_42  and  CD_43 
REMARK   18  A    between atoms: CA_49  and  N_55 
REMARK   19  A    between atoms: CA_49  and  CB_51 
REMARK   20  A    between atoms: CA_49  and  C_50 
REMARK       I    between atoms: C_50  and  N_71 
REMARK   21  A    between atoms: CB_51  and  OG1_57 
REMARK   22  A    between atoms: CA_58  and  CB_60 
REMARK   23  A    between atoms: CA_58  and  N_71 
REMARK   24  A    between atoms: CA_58  and  C_59 
REMARK       I    between atoms: C_59  and  N_80 
REMARK   25  A    between atoms: CB_60  and  CG_61 
REMARK   26  A    between atoms: CA_74  and  N_80 
REMARK   27  A    between atoms: CA_74  and  CB_76 
REMARK   28  A    between atoms: CA_74  and  C_75 
ROOT
ATOM      1  CA  GLU B   4       2.935  -2.082  -1.427  1.00  0.00     0.177 C 
ENDROOT
BRANCH   1   2
ATOM      2  N   GLU B   4       2.719  -3.266  -0.598  1.00  0.00    -0.346 N 
ATOM      3  H   GLU B   4       1.805  -3.516  -0.349  1.00  0.23     0.163 HD
ATOM      4  C   TRP B   3       3.738  -4.008  -0.173  1.00  0.00     0.241 C 
ATOM      5  O   TRP B   3       4.909  -3.750  -0.448  1.00  0.00    -0.271 OA
BRANCH   4   6
ATOM      6  CA  TRP B   3       3.388  -5.218   0.688  1.00  0.00     0.181 C 
BRANCH   6   7
ATOM      7  CB  TRP B   3       2.953  -6.389  -0.205  1.00  0.00     0.075 C 
BRANCH   7   8
ATOM      8  CG  TRP B   3       1.526  -6.311  -0.663  1.00  0.00    -0.028 A 
ATOM      9  CD2 TRP B   3       1.046  -5.752  -1.892  1.00  0.00    -0.002 A 
ATOM     10  CE3 TRP B   3       1.663  -5.137  -2.986  1.00  0.00     0.014 A 
ATOM     11  CE2 TRP B   3      -0.354  -5.903  -1.902  1.00  0.00     0.042 A 
ATOM     12  CZ3 TRP B   3       0.877  -4.699  -4.035  1.00  0.00     0.001 A 
ATOM     13  CH2 TRP B   3      -0.513  -4.862  -4.015  1.00  0.00     0.002 A 
ATOM     14  CZ2 TRP B   3      -1.145  -5.461  -2.960  1.00  0.00     0.030 A 
ATOM     15  NE1 TRP B   3      -0.709  -6.527  -0.735  1.00  0.00    -0.365 N 
ATOM     16  HE1 TRP B   3      -1.622  -6.762  -0.467  1.00  0.23     0.165 HD
ATOM     17  CD1 TRP B   3       0.426  -6.770   0.003  1.00  0.00     0.096 A 
ENDBRANCH   7   8
ENDBRANCH   6   7
BRANCH   6  18
ATOM     18  N   TRP B   3       2.351  -4.888   1.662  1.00  0.00    -0.346 N 
ATOM     19  C   GLY B   2       2.027  -5.723   2.646  1.00  0.00     0.236 C 
ATOM     20  O   GLY B   2       2.568  -6.816   2.803  1.00  0.00    -0.272 OA
ATOM     21  H   TRP B   3       1.886  -4.027   1.592  1.00  0.23     0.163 HD
BRANCH  19  22
ATOM     22  CA  GLY B   2       0.937  -5.257   3.592  1.00  0.00     0.225 C 
BRANCH  22  23
ATOM     23  N   GLY B   2      -0.095  -6.259   3.790  1.00  0.00    -0.350 N 
ATOM     24  H   GLY B   2      -0.951  -6.176   3.321  1.00  0.23     0.163 HD
ATOM     25  C   ARG B   1       0.093  -7.291   4.618  1.00  0.00     0.254 C 
ATOM     26  O   ARG B   1       1.152  -7.467   5.226  1.00  0.00    -0.271 OA
BRANCH  25  27
ATOM     27  CA  ARG B   1      -1.054  -8.267   4.732  1.00  0.00     0.350 C 
BRANCH  27  28
ATOM     28  CB  ARG B   1      -1.455  -8.836   3.341  1.00  0.00     0.050 C 
BRANCH  28  29
ATOM     29  CG  ARG B   1      -2.450 -10.029   3.368  1.00  0.00     0.023 C 
BRANCH  29  30
ATOM     30  CD  ARG B   1      -2.810 -10.514   1.954  1.00  0.00     0.138 C 
BRANCH  30  31
ATOM     31  NE  ARG B   1      -3.784 -11.641   2.042  1.00  0.00    -0.227 N 
ATOM     32  CZ  ARG B   1      -4.355 -12.246   1.005  1.00  0.00     0.665 C 
ATOM     33  NH2 ARG B   1      -5.190 -13.209   1.238  1.00  0.00    -0.235 N 
ATOM     34  NH1 ARG B   1      -4.123 -11.924  -0.237  1.00  0.00    -0.235 N 
ATOM     35 2HH2 ARG B   1      -5.620 -13.661   0.428  1.00  0.00     0.174 HD
ATOM     36 1HH2 ARG B   1      -5.359 -13.448   2.217  1.00  0.00     0.174 HD
ATOM     37 1HH1 ARG B   1      -3.455 -11.158  -0.351  1.00  0.00     0.174 HD
ATOM     38 2HH1 ARG B   1      -4.603 -12.437  -0.978  1.00  0.00     0.174 HD
ATOM     39  HE  ARG B   1      -4.075 -12.017   2.950  1.00  0.00     0.177 HD
ENDBRANCH  30  31
ENDBRANCH  29  30
ENDBRANCH  28  29
ENDBRANCH  27  28
BRANCH  27  40
ATOM     40  N   ARG B   1      -2.222  -7.632   5.336  1.00  0.00     0.312 N 
ATOM     41  H   ARG B   1      -1.997  -6.610   5.561  1.00  0.00     0.359 HD
ENDBRANCH  27  40
ENDBRANCH  25  27
ENDBRANCH  22  23
ENDBRANCH  19  22
ENDBRANCH   6  18
ENDBRANCH   4   6
ENDBRANCH   1   2
BRANCH   1  42
ATOM     42  CB  GLU B   4       1.619  -1.618  -2.053  1.00  0.00     0.045 C 
BRANCH  42  43
ATOM     43  CG  GLU B   4       0.498  -1.442  -1.042  1.00  0.00     0.116 C 
BRANCH  43  44
ATOM     44  CD  GLU B   4      -0.456  -2.621  -1.013  1.00  0.00     0.172 C 
ATOM     45  OE1 GLU B   4      -1.137  -2.858  -2.032  1.00  0.00    -0.648 OA
ATOM     46  OE2 GLU B   4      -0.521  -3.306   0.029  1.00  0.00    -0.648 OA
ENDBRANCH  43  44
ENDBRANCH  42  43
ENDBRANCH   1  42
BRANCH   1  47
ATOM     47  C   GLU B   4       3.543  -0.948  -0.607  1.00  0.00     0.241 C 
ATOM     48  O   GLU B   4       3.056  -0.622   0.476  1.00  0.00    -0.271 OA
ATOM     49  N   THR B   5       4.607  -0.349  -1.134  1.00  7.70    -0.344 N 
ATOM     50  H   THR B   5       4.944  -0.656  -2.002  1.00  0.23     0.163 HD
BRANCH  49  51
ATOM     51  CA  THR B   5       5.286   0.753  -0.459  1.00  7.88     0.205 C 
BRANCH  51  52
ATOM     52  CB  THR B   5       6.709   0.344  -0.075  1.00  4.05     0.146 C 
ATOM     53  CG2 THR B   5       7.356   1.289   0.914  1.00  3.72     0.042 C 
BRANCH  52  54
ATOM     54  OG1 THR B   5       6.720  -0.951   0.499  1.00  7.31    -0.393 OA
ATOM     55  HG1 THR B   5       6.777  -1.609  -0.197  1.00  0.23     0.210 HD
ENDBRANCH  52  54
ENDBRANCH  51  52
BRANCH  51  56
ATOM     56  C   THR B   5       5.323   1.989  -1.352  1.00  7.05     0.243 C 
ATOM     57  O   THR B   5       5.874   1.955  -2.452  1.00  6.06    -0.271 OA
ATOM     58  N   TRP B   6       4.731   3.078  -0.874  1.00  0.00    -0.346 N 
ATOM     59  H   TRP B   6       4.307   3.044   0.009  1.00  0.23     0.163 HD
BRANCH  58  60
ATOM     60  CA  TRP B   6       4.694   4.322  -1.632  1.00  0.00     0.181 C 
BRANCH  60  61
ATOM     61  CB  TRP B   6       3.466   5.144  -1.238  1.00  0.00     0.075 C 
BRANCH  61  62
ATOM     62  CG  TRP B   6       2.176   4.494  -1.635  1.00  0.00    -0.028 A 
ATOM     63  CD2 TRP B   6       1.490   4.644  -2.884  1.00  0.00    -0.002 A 
ATOM     64  CE2 TRP B   6       0.330   3.849  -2.820  1.00  0.00     0.042 A 
ATOM     65  CE3 TRP B   6       1.744   5.374  -4.048  1.00  0.00     0.014 A 
ATOM     66  CZ2 TRP B   6      -0.572   3.764  -3.877  1.00  0.00     0.030 A 
ATOM     67  NE1 TRP B   6       0.312   3.244  -1.590  1.00  0.00    -0.365 N 
ATOM     68  CH2 TRP B   6      -0.300   4.489  -5.005  1.00  0.00     0.002 A 
ATOM     69  CZ3 TRP B   6       0.846   5.288  -5.097  1.00  0.00     0.001 A 
ATOM     70  CD1 TRP B   6       1.424   3.637  -0.885  1.00  0.00     0.096 A 
ATOM     71  HE1 TRP B   6      -0.381   2.631  -1.266  1.00  0.23     0.165 HD
ENDBRANCH  61  62
ENDBRANCH  60  61
BRANCH  60  72
ATOM     72  C   TRP B   6       5.965   5.135  -1.408  1.00  0.00     0.241 C 
ATOM     73  N   VAL B   7       6.752   5.293  -2.468  1.00  6.11    -0.344 N 
ATOM     74  H   VAL B   7       6.488   4.893  -3.322  1.00  0.23     0.163 HD
ATOM     75  O   TRP B   6       6.227   5.604  -0.300  1.00  0.00    -0.271 OA
BRANCH  73  76
ATOM     76  CA  VAL B   7       7.998   6.045  -2.391  1.00  5.65     0.189 C 
BRANCH  76  77
ATOM     77  CB  VAL B   7       9.053   5.476  -3.360  1.00  1.15     0.010 C 
ATOM     78  CG1 VAL B   7       9.474   4.078  -2.930  1.00  4.96     0.012 C 
ATOM     79  CG2 VAL B   7       8.523   5.465  -4.786  1.00  9.83     0.012 C 
ENDBRANCH  76  77
BRANCH  76  80
ATOM     80  C   VAL B   7       7.772   7.520  -2.710  1.00  4.44     0.197 C 
ATOM     81  O   VAL B   7       8.412   8.369  -2.055  1.00  0.00    -0.646 OA
ATOM     82  OXT VAL B   7       6.958   7.813  -3.609  1.00  0.00    -0.646 OA
ENDBRANCH  76  80
ENDBRANCH  73  76
ENDBRANCH  60  72
ENDBRANCH  58  60
ENDBRANCH  51  56
ENDBRANCH  49  51
ENDBRANCH   1  47
TORSDOF 28
