MODEL 1
REMARK VINA RESULT:      -7.2      0.000      0.000
REMARK  26 active torsions:
REMARK  status: ('A' for Active; 'I' for Inactive)
REMARK    1  A    between atoms: N_1  and  CA_2 
REMARK    2  A    between atoms: CA_2  and  CB_5 
REMARK    3  A    between atoms: CA_2  and  C_3 
REMARK       I    between atoms: C_3  and  N_12 
REMARK    4  A    between atoms: CB_5  and  SG_6 
REMARK    5  A    between atoms: CA_9  and  N_12 
REMARK    6  A    between atoms: CA_9  and  C_10 
REMARK       I    between atoms: C_10  and  N_27 
REMARK    7  A    between atoms: CA_14  and  CB_16 
REMARK    8  A    between atoms: CA_14  and  C_15 
REMARK    9  A    between atoms: CA_14  and  N_27 
REMARK       I    between atoms: C_15  and  N_36 
REMARK   10  A    between atoms: CB_16  and  CG_17 
REMARK   11  A    between atoms: CA_30  and  CB_32 
REMARK   12  A    between atoms: CA_30  and  N_36 
REMARK   13  A    between atoms: CA_30  and  C_31 
REMARK       I    between atoms: C_31  and  N_46 
REMARK   14  A    between atoms: CB_32  and  CG_33 
REMARK   15  A    between atoms: CG_33  and  CD_34 
REMARK   16  A    between atoms: CA_40  and  N_46 
REMARK   17  A    between atoms: CA_40  and  C_41 
REMARK   18  A    between atoms: CA_40  and  CB_42 
REMARK       I    between atoms: C_41  and  N_62 
REMARK   19  A    between atoms: CB_42  and  OG1_48 
REMARK   20  A    between atoms: CA_49  and  N_62 
REMARK   21  A    between atoms: CA_49  and  CB_51 
REMARK   22  A    between atoms: CA_49  and  C_50 
REMARK       I    between atoms: C_50  and  N_71 
REMARK   23  A    between atoms: CB_51  and  CG_52 
REMARK   24  A    between atoms: CA_65  and  CB_67 
REMARK   25  A    between atoms: CA_65  and  C_66 
REMARK   26  A    between atoms: CA_65  and  N_71 
ROOT
ATOM      1  CA  GLU B   4       6.822  87.429  60.479  1.00  0.00     0.177 C 
ENDROOT
BRANCH   1   2
ATOM      2  CB  GLU B   4       6.983  85.937  60.182  1.00  0.00     0.045 C 
BRANCH   2   3
ATOM      3  CG  GLU B   4       6.194  85.473  58.969  1.00  0.00     0.116 C 
BRANCH   3   4
ATOM      4  CD  GLU B   4       7.049  85.362  57.721  1.00  0.00     0.172 C 
ATOM      5  OE1 GLU B   4       7.005  86.291  56.888  1.00  0.00    -0.648 OA
ATOM      6  OE2 GLU B   4       7.760  84.347  57.577  1.00  0.00    -0.648 OA
ENDBRANCH   3   4
ENDBRANCH   2   3
ENDBRANCH   1   2
BRANCH   1   7
ATOM      7  N   GLU B   4       7.412  87.761  61.773  1.00  0.00    -0.346 N 
ATOM      8  H   GLU B   4       7.625  87.040  62.402  1.00  0.23     0.163 HD
ATOM      9  C   TRP B   3       7.663  89.022  62.116  1.00  0.00     0.241 C 
ATOM     10  O   TRP B   3       7.419  89.974  61.375  1.00  0.00    -0.271 OA
BRANCH   9  11
ATOM     11  CA  TRP B   3       8.278  89.245  63.494  1.00  0.00     0.181 C 
BRANCH  11  12
ATOM     12  CB  TRP B   3       7.440  88.530  64.564  1.00  0.00     0.075 C 
BRANCH  12  13
ATOM     13  CG  TRP B   3       8.203  88.190  65.811  1.00  0.00    -0.028 A 
ATOM     14  CD1 TRP B   3       8.911  87.048  66.053  1.00  0.00     0.096 A 
ATOM     15  NE1 TRP B   3       9.467  87.094  67.310  1.00  0.00    -0.365 N 
ATOM     16  CE2 TRP B   3       9.121  88.278  67.906  1.00  0.00     0.042 A 
ATOM     17  HE1 TRP B   3      10.022  86.392  67.711  1.00  0.23     0.165 HD
ATOM     18  CZ2 TRP B   3       9.442  88.776  69.166  1.00  0.00     0.030 A 
ATOM     19  CD2 TRP B   3       8.323  88.993  66.992  1.00  0.00    -0.002 A 
ATOM     20  CH2 TRP B   3       8.951  90.008  69.503  1.00  0.00     0.002 A 
ATOM     21  CZ3 TRP B   3       8.154  90.742  68.618  1.00  0.00     0.001 A 
ATOM     22  CE3 TRP B   3       7.835  90.249  67.367  1.00  0.00     0.014 A 
ENDBRANCH  12  13
ENDBRANCH  11  12
BRANCH  11  23
ATOM     23  N   TRP B   3       8.402  90.669  63.791  1.00  0.00    -0.346 N 
ATOM     24  C   GLY B   2       9.579  91.223  64.072  1.00  0.00     0.236 C 
ATOM     25  O   GLY B   2      10.630  90.585  64.103  1.00  0.00    -0.272 OA
ATOM     26  H   TRP B   3       7.599  91.232  63.776  1.00  0.23     0.163 HD
BRANCH  24  27
ATOM     27  CA  GLY B   2       9.570  92.713  64.356  1.00  0.00     0.225 C 
BRANCH  27  28
ATOM     28  N   GLY B   2      10.305  93.474  63.362  1.00  0.00    -0.350 N 
ATOM     29  C   CYS B   1      11.469  94.063  63.669  1.00  0.00     0.254 C 
ATOM     30  O   CYS B   1      11.952  94.030  64.797  1.00  0.00    -0.271 OA
ATOM     31  H   GLY B   2       9.957  93.548  62.450  1.00  0.23     0.163 HD
BRANCH  29  32
ATOM     32  CA  CYS B   1      12.119  94.836  62.545  1.00  0.00     0.359 C 
BRANCH  32  33
ATOM     33  CB  CYS B   1      13.328  95.664  63.022  1.00  0.00     0.118 C 
BRANCH  33  34
ATOM     34  SG  CYS B   1      14.869  94.759  62.755  1.00  0.00    -0.180 SA
ATOM     35  HG  CYS B   1      15.129  94.506  64.036  1.00  0.00     0.101 HD
ENDBRANCH  33  34
ENDBRANCH  32  33
BRANCH  32  36
ATOM     36  N   CYS B   1      11.163  95.736  61.908  1.00  0.00     0.313 N 
ATOM     37  H   CYS B   1      10.218  95.235  61.795  1.00  0.00     0.359 HD
ENDBRANCH  32  36
ENDBRANCH  29  32
ENDBRANCH  27  28
ENDBRANCH  24  27
ENDBRANCH  11  23
ENDBRANCH   9  11
ENDBRANCH   1   7
BRANCH   1  38
ATOM     38  C   GLU B   4       5.343  87.803  60.443  1.00  0.00     0.241 C 
ATOM     39  N   THR B   5       4.617  87.421  61.490  1.00  7.70    -0.344 N 
ATOM     40  H   THR B   5       5.053  86.928  62.217  1.00  0.23     0.163 HD
ATOM     41  O   GLU B   4       4.873  88.427  59.491  1.00  0.00    -0.271 OA
BRANCH  39  42
ATOM     42  CA  THR B   5       3.190  87.716  61.589  1.00  7.88     0.205 C 
BRANCH  42  43
ATOM     43  C   THR B   5       2.952  88.922  62.493  1.00  7.05     0.243 C 
ATOM     44  N   TRP B   6       4.018  89.406  63.121  1.00  0.00    -0.346 N 
ATOM     45  H   TRP B   6       4.890  88.980  62.981  1.00  0.23     0.163 HD
ATOM     46  O   THR B   5       1.826  89.401  62.620  1.00  6.06    -0.271 OA
BRANCH  44  47
ATOM     47  CA  TRP B   6       3.922  90.552  64.015  1.00  0.00     0.181 C 
BRANCH  47  48
ATOM     48  CB  TRP B   6       4.388  90.166  65.420  1.00  0.00     0.075 C 
BRANCH  48  49
ATOM     49  CG  TRP B   6       3.418  90.571  66.488  1.00  0.00    -0.028 A 
ATOM     50  CD2 TRP B   6       3.501  90.258  67.884  1.00  0.00    -0.002 A 
ATOM     51  CE2 TRP B   6       2.386  90.845  68.510  1.00  0.00     0.042 A 
ATOM     52  CE3 TRP B   6       4.410  89.537  68.663  1.00  0.00     0.014 A 
ATOM     53  CZ2 TRP B   6       2.157  90.734  69.879  1.00  0.00     0.030 A 
ATOM     54  NE1 TRP B   6       1.659  91.486  67.540  1.00  0.00    -0.365 N 
ATOM     55  CH2 TRP B   6       3.062  90.022  70.619  1.00  0.00     0.002 A 
ATOM     56  CZ3 TRP B   6       4.180  89.427  70.023  1.00  0.00     0.001 A 
ATOM     57  HE1 TRP B   6       0.827  91.984  67.686  1.00  0.23     0.165 HD
ATOM     58  CD1 TRP B   6       2.286  91.316  66.329  1.00  0.00     0.096 A 
ENDBRANCH  48  49
ENDBRANCH  47  48
BRANCH  47  59
ATOM     59  C   TRP B   6       4.748  91.723  63.491  1.00  0.00     0.241 C 
ATOM     60  O   TRP B   6       5.793  92.058  64.049  1.00  0.00    -0.271 OA
ATOM     61  N   VAL B   7       4.271  92.338  62.413  1.00  6.11    -0.344 N 
ATOM     62  H   VAL B   7       3.434  92.021  62.015  1.00  0.23     0.163 HD
BRANCH  61  63
ATOM     63  CA  VAL B   7       4.962  93.469  61.808  1.00  5.65     0.189 C 
BRANCH  63  64
ATOM     64  CB  VAL B   7       5.909  93.006  60.683  1.00  1.15     0.010 C 
ATOM     65  CG1 VAL B   7       5.209  92.005  59.774  1.00  4.96     0.012 C 
ATOM     66  CG2 VAL B   7       6.417  94.197  59.884  1.00  9.83     0.012 C 
ENDBRANCH  63  64
BRANCH  63  67
ATOM     67  C   VAL B   7       3.972  94.481  61.241  1.00  4.44     0.197 C 
ATOM     68  OXT VAL B   7       3.277  94.145  60.261  1.00  0.00    -0.646 OA
ATOM     69  O   VAL B   7       3.899  95.603  61.785  1.00  0.00    -0.646 OA
ENDBRANCH  63  67
ENDBRANCH  61  63
ENDBRANCH  47  59
ENDBRANCH  44  47
ENDBRANCH  42  43
BRANCH  42  70
ATOM     70  CB  THR B   5       2.434  86.502  62.130  1.00  4.05     0.146 C 
ATOM     71  CG2 THR B   5       3.119  85.187  61.826  1.00  3.72     0.042 C 
BRANCH  70  72
ATOM     72  OG1 THR B   5       2.282  86.591  63.535  1.00  7.31    -0.393 OA
ATOM     73  HG1 THR B   5       1.890  87.438  63.761  1.00  0.23     0.210 HD
ENDBRANCH  70  72
ENDBRANCH  42  70
ENDBRANCH  39  42
ENDBRANCH   1  38
TORSDOF 26
ENDMDL
MODEL 2
REMARK VINA RESULT:      -6.5      1.738      2.497
REMARK  26 active torsions:
REMARK  status: ('A' for Active; 'I' for Inactive)
REMARK    1  A    between atoms: N_1  and  CA_2 
REMARK    2  A    between atoms: CA_2  and  CB_5 
REMARK    3  A    between atoms: CA_2  and  C_3 
REMARK       I    between atoms: C_3  and  N_12 
REMARK    4  A    between atoms: CB_5  and  SG_6 
REMARK    5  A    between atoms: CA_9  and  N_12 
REMARK    6  A    between atoms: CA_9  and  C_10 
REMARK       I    between atoms: C_10  and  N_27 
REMARK    7  A    between atoms: CA_14  and  CB_16 
REMARK    8  A    between atoms: CA_14  and  C_15 
REMARK    9  A    between atoms: CA_14  and  N_27 
REMARK       I    between atoms: C_15  and  N_36 
REMARK   10  A    between atoms: CB_16  and  CG_17 
REMARK   11  A    between atoms: CA_30  and  CB_32 
REMARK   12  A    between atoms: CA_30  and  N_36 
REMARK   13  A    between atoms: CA_30  and  C_31 
REMARK       I    between atoms: C_31  and  N_46 
REMARK   14  A    between atoms: CB_32  and  CG_33 
REMARK   15  A    between atoms: CG_33  and  CD_34 
REMARK   16  A    between atoms: CA_40  and  N_46 
REMARK   17  A    between atoms: CA_40  and  C_41 
REMARK   18  A    between atoms: CA_40  and  CB_42 
REMARK       I    between atoms: C_41  and  N_62 
REMARK   19  A    between atoms: CB_42  and  OG1_48 
REMARK   20  A    between atoms: CA_49  and  N_62 
REMARK   21  A    between atoms: CA_49  and  CB_51 
REMARK   22  A    between atoms: CA_49  and  C_50 
REMARK       I    between atoms: C_50  and  N_71 
REMARK   23  A    between atoms: CB_51  and  CG_52 
REMARK   24  A    between atoms: CA_65  and  CB_67 
REMARK   25  A    between atoms: CA_65  and  C_66 
REMARK   26  A    between atoms: CA_65  and  N_71 
ROOT
ATOM      1  CA  GLU B   4       6.363  87.755  61.108  1.00  0.00     0.177 C 
ENDROOT
BRANCH   1   2
ATOM      2  CB  GLU B   4       6.699  86.394  60.498  1.00  0.00     0.045 C 
BRANCH   2   3
ATOM      3  CG  GLU B   4       5.962  86.115  59.199  1.00  0.00     0.116 C 
BRANCH   3   4
ATOM      4  CD  GLU B   4       6.793  86.440  57.972  1.00  0.00     0.172 C 
ATOM      5  OE1 GLU B   4       7.171  85.497  57.245  1.00  0.00    -0.648 OA
ATOM      6  OE2 GLU B   4       7.066  87.636  57.740  1.00  0.00    -0.648 OA
ENDBRANCH   3   4
ENDBRANCH   2   3
ENDBRANCH   1   2
BRANCH   1   7
ATOM      7  N   GLU B   4       7.093  87.951  62.359  1.00  0.00    -0.346 N 
ATOM      8  H   GLU B   4       7.147  87.214  63.002  1.00  0.23     0.163 HD
ATOM      9  C   TRP B   3       7.682  89.110  62.643  1.00  0.00     0.241 C 
ATOM     10  O   TRP B   3       7.652  90.075  61.881  1.00  0.00    -0.271 OA
BRANCH   9  11
ATOM     11  CA  TRP B   3       8.412  89.195  63.980  1.00  0.00     0.181 C 
BRANCH  11  12
ATOM     12  CB  TRP B   3       7.537  88.601  65.093  1.00  0.00     0.075 C 
BRANCH  12  13
ATOM     13  CG  TRP B   3       8.315  87.957  66.203  1.00  0.00    -0.028 A 
ATOM     14  CD1 TRP B   3       8.732  86.658  66.265  1.00  0.00     0.096 A 
ATOM     15  NE1 TRP B   3       9.411  86.435  67.441  1.00  0.00    -0.365 N 
ATOM     16  CE2 TRP B   3       9.440  87.598  68.164  1.00  0.00     0.042 A 
ATOM     17  HE1 TRP B   3       9.809  85.582  67.714  1.00  0.23     0.165 HD
ATOM     18  CZ2 TRP B   3      10.007  87.868  69.407  1.00  0.00     0.030 A 
ATOM     19  CD2 TRP B   3       8.758  88.578  67.417  1.00  0.00    -0.002 A 
ATOM     20  CH2 TRP B   3       9.882  89.139  69.897  1.00  0.00     0.002 A 
ATOM     21  CZ3 TRP B   3       9.209  90.134  69.178  1.00  0.00     0.001 A 
ATOM     22  CE3 TRP B   3       8.646  89.868  67.945  1.00  0.00     0.014 A 
ENDBRANCH  12  13
ENDBRANCH  11  12
BRANCH  11  23
ATOM     23  N   TRP B   3       8.788  90.572  64.287  1.00  0.00    -0.346 N 
ATOM     24  C   GLY B   2      10.062  90.951  64.348  1.00  0.00     0.236 C 
ATOM     25  O   GLY B   2      11.000  90.180  64.154  1.00  0.00    -0.272 OA
ATOM     26  H   TRP B   3       8.083  91.236  64.447  1.00  0.23     0.163 HD
BRANCH  24  27
ATOM     27  CA  GLY B   2      10.315  92.411  64.671  1.00  0.00     0.225 C 
BRANCH  27  28
ATOM     28  N   GLY B   2      11.621  92.862  64.225  1.00  0.00    -0.350 N 
ATOM     29  C   CYS B   1      11.747  93.949  63.454  1.00  0.00     0.254 C 
ATOM     30  O   CYS B   1      10.782  94.592  63.052  1.00  0.00    -0.271 OA
ATOM     31  H   GLY B   2      12.425  92.376  64.502  1.00  0.23     0.163 HD
BRANCH  29  32
ATOM     32  CA  CYS B   1      13.161  94.297  63.050  1.00  0.00     0.359 C 
BRANCH  32  33
ATOM     33  CB  CYS B   1      14.208  93.407  63.747  1.00  0.00     0.118 C 
BRANCH  33  34
ATOM     34  SG  CYS B   1      15.231  92.549  62.529  1.00  0.00    -0.180 SA
ATOM     35  HG  CYS B   1      15.292  93.540  61.643  1.00  0.00     0.101 HD
ENDBRANCH  33  34
ENDBRANCH  32  33
BRANCH  32  36
ATOM     36  N   CYS B   1      13.463  95.692  63.351  1.00  0.00     0.313 N 
ATOM     37  H   CYS B   1      14.186  96.064  62.646  1.00  0.00     0.359 HD
ENDBRANCH  32  36
ENDBRANCH  29  32
ENDBRANCH  27  28
ENDBRANCH  24  27
ENDBRANCH  11  23
ENDBRANCH   9  11
ENDBRANCH   1   7
BRANCH   1  38
ATOM     38  C   GLU B   4       4.858  87.861  61.335  1.00  0.00     0.241 C 
ATOM     39  N   THR B   5       4.289  86.841  61.971  1.00  7.70    -0.344 N 
ATOM     40  H   THR B   5       4.847  86.087  62.256  1.00  0.23     0.163 HD
ATOM     41  O   GLU B   4       4.230  88.846  60.946  1.00  0.00    -0.271 OA
BRANCH  39  42
ATOM     42  CA  THR B   5       2.858  86.812  62.258  1.00  7.88     0.205 C 
BRANCH  42  43
ATOM     43  C   THR B   5       2.586  87.280  63.684  1.00  7.05     0.243 C 
ATOM     44  N   TRP B   6       3.039  88.487  64.004  1.00  0.00    -0.346 N 
ATOM     45  H   TRP B   6       3.516  89.013  63.329  1.00  0.23     0.163 HD
ATOM     46  O   THR B   5       1.980  86.560  64.478  1.00  6.06    -0.271 OA
BRANCH  44  47
ATOM     47  CA  TRP B   6       2.848  89.046  65.336  1.00  0.00     0.181 C 
BRANCH  47  48
ATOM     48  CB  TRP B   6       3.567  88.188  66.377  1.00  0.00     0.075 C 
BRANCH  48  49
ATOM     49  CG  TRP B   6       3.264  88.602  67.785  1.00  0.00    -0.028 A 
ATOM     50  CD2 TRP B   6       4.179  88.622  68.887  1.00  0.00    -0.002 A 
ATOM     51  CE2 TRP B   6       3.468  89.084  70.011  1.00  0.00     0.042 A 
ATOM     52  CE3 TRP B   6       5.530  88.293  69.033  1.00  0.00     0.014 A 
ATOM     53  CZ2 TRP B   6       4.063  89.225  71.261  1.00  0.00     0.030 A 
ATOM     54  NE1 TRP B   6       2.181  89.333  69.610  1.00  0.00    -0.365 N 
ATOM     55  CH2 TRP B   6       5.386  88.896  71.377  1.00  0.00     0.002 A 
ATOM     56  CZ3 TRP B   6       6.119  88.434  70.277  1.00  0.00     0.001 A 
ATOM     57  HE1 TRP B   6       1.459  89.665  70.184  1.00  0.23     0.165 HD
ATOM     58  CD1 TRP B   6       2.068  89.040  68.272  1.00  0.00     0.096 A 
ENDBRANCH  48  49
ENDBRANCH  47  48
BRANCH  47  59
ATOM     59  C   TRP B   6       3.351  90.484  65.401  1.00  0.00     0.241 C 
ATOM     60  O   TRP B   6       2.626  91.388  65.818  1.00  0.00    -0.271 OA
ATOM     61  N   VAL B   7       4.599  90.686  64.989  1.00  6.11    -0.344 N 
ATOM     62  H   VAL B   7       5.125  89.924  64.669  1.00  0.23     0.163 HD
BRANCH  61  63
ATOM     63  CA  VAL B   7       5.205  92.011  65.001  1.00  5.65     0.189 C 
BRANCH  63  64
ATOM     64  CB  VAL B   7       6.405  92.066  65.967  1.00  1.15     0.010 C 
ATOM     65  CG1 VAL B   7       6.856  93.505  66.177  1.00  4.96     0.012 C 
ATOM     66  CG2 VAL B   7       6.057  91.411  67.295  1.00  9.83     0.012 C 
ENDBRANCH  63  64
BRANCH  63  67
ATOM     67  C   VAL B   7       5.669  92.419  63.606  1.00  4.44     0.197 C 
ATOM     68  OXT VAL B   7       6.857  92.767  63.456  1.00  0.00    -0.646 OA
ATOM     69  O   VAL B   7       4.837  92.383  62.675  1.00  0.00    -0.646 OA
ENDBRANCH  63  67
ENDBRANCH  61  63
ENDBRANCH  47  59
ENDBRANCH  44  47
ENDBRANCH  42  43
BRANCH  42  70
ATOM     70  CB  THR B   5       2.304  85.401  62.057  1.00  4.05     0.146 C 
ATOM     71  CG2 THR B   5       2.177  85.010  60.600  1.00  3.72     0.042 C 
BRANCH  70  72
ATOM     72  OG1 THR B   5       3.137  84.443  62.686  1.00  7.31    -0.393 OA
ATOM     73  HG1 THR B   5       3.153  83.639  62.162  1.00  0.23     0.210 HD
ENDBRANCH  70  72
ENDBRANCH  42  70
ENDBRANCH  39  42
ENDBRANCH   1  38
TORSDOF 26
ENDMDL
MODEL 3
REMARK VINA RESULT:      -6.1      1.650      2.237
REMARK  26 active torsions:
REMARK  status: ('A' for Active; 'I' for Inactive)
REMARK    1  A    between atoms: N_1  and  CA_2 
REMARK    2  A    between atoms: CA_2  and  CB_5 
REMARK    3  A    between atoms: CA_2  and  C_3 
REMARK       I    between atoms: C_3  and  N_12 
REMARK    4  A    between atoms: CB_5  and  SG_6 
REMARK    5  A    between atoms: CA_9  and  N_12 
REMARK    6  A    between atoms: CA_9  and  C_10 
REMARK       I    between atoms: C_10  and  N_27 
REMARK    7  A    between atoms: CA_14  and  CB_16 
REMARK    8  A    between atoms: CA_14  and  C_15 
REMARK    9  A    between atoms: CA_14  and  N_27 
REMARK       I    between atoms: C_15  and  N_36 
REMARK   10  A    between atoms: CB_16  and  CG_17 
REMARK   11  A    between atoms: CA_30  and  CB_32 
REMARK   12  A    between atoms: CA_30  and  N_36 
REMARK   13  A    between atoms: CA_30  and  C_31 
REMARK       I    between atoms: C_31  and  N_46 
REMARK   14  A    between atoms: CB_32  and  CG_33 
REMARK   15  A    between atoms: CG_33  and  CD_34 
REMARK   16  A    between atoms: CA_40  and  N_46 
REMARK   17  A    between atoms: CA_40  and  C_41 
REMARK   18  A    between atoms: CA_40  and  CB_42 
REMARK       I    between atoms: C_41  and  N_62 
REMARK   19  A    between atoms: CB_42  and  OG1_48 
REMARK   20  A    between atoms: CA_49  and  N_62 
REMARK   21  A    between atoms: CA_49  and  CB_51 
REMARK   22  A    between atoms: CA_49  and  C_50 
REMARK       I    between atoms: C_50  and  N_71 
REMARK   23  A    between atoms: CB_51  and  CG_52 
REMARK   24  A    between atoms: CA_65  and  CB_67 
REMARK   25  A    between atoms: CA_65  and  C_66 
REMARK   26  A    between atoms: CA_65  and  N_71 
ROOT
ATOM      1  CA  GLU B   4       6.727  87.286  60.717  1.00  0.00     0.177 C 
ENDROOT
BRANCH   1   2
ATOM      2  CB  GLU B   4       7.028  85.873  60.215  1.00  0.00     0.045 C 
BRANCH   2   3
ATOM      3  CG  GLU B   4       6.244  85.495  58.969  1.00  0.00     0.116 C 
BRANCH   3   4
ATOM      4  CD  GLU B   4       6.920  85.952  57.690  1.00  0.00     0.172 C 
ATOM      5  OE1 GLU B   4       7.370  85.084  56.914  1.00  0.00    -0.648 OA
ATOM      6  OE2 GLU B   4       6.999  87.178  57.466  1.00  0.00    -0.648 OA
ENDBRANCH   3   4
ENDBRANCH   2   3
ENDBRANCH   1   2
BRANCH   1   7
ATOM      7  N   GLU B   4       7.410  87.536  61.984  1.00  0.00    -0.346 N 
ATOM      8  H   GLU B   4       7.654  86.778  62.555  1.00  0.23     0.163 HD
ATOM      9  C   TRP B   3       7.705  88.772  62.379  1.00  0.00     0.241 C 
ATOM     10  O   TRP B   3       7.426  89.767  61.713  1.00  0.00    -0.271 OA
BRANCH   9  11
ATOM     11  CA  TRP B   3       8.417  88.907  63.722  1.00  0.00     0.181 C 
BRANCH  11  12
ATOM     12  CB  TRP B   3       7.551  88.304  64.838  1.00  0.00     0.075 C 
BRANCH  12  13
ATOM     13  CG  TRP B   3       8.322  87.909  66.063  1.00  0.00    -0.028 A 
ATOM     14  CD1 TRP B   3       8.931  86.709  66.295  1.00  0.00     0.096 A 
ATOM     15  NE1 TRP B   3       9.532  86.716  67.533  1.00  0.00    -0.365 N 
ATOM     16  CE2 TRP B   3       9.315  87.932  68.125  1.00  0.00     0.042 A 
ATOM     17  HE1 TRP B   3      10.035  85.971  67.924  1.00  0.23     0.165 HD
ATOM     18  CZ2 TRP B   3       9.723  88.411  69.368  1.00  0.00     0.030 A 
ATOM     19  CD2 TRP B   3       8.555  88.709  67.229  1.00  0.00    -0.002 A 
ATOM     20  CH2 TRP B   3       9.358  89.685  69.705  1.00  0.00     0.002 A 
ATOM     21  CZ3 TRP B   3       8.601  90.481  68.837  1.00  0.00     0.001 A 
ATOM     22  CE3 TRP B   3       8.196  90.007  67.604  1.00  0.00     0.014 A 
ENDBRANCH  12  13
ENDBRANCH  11  12
BRANCH  11  23
ATOM     23  N   TRP B   3       8.742  90.302  64.007  1.00  0.00    -0.346 N 
ATOM     24  C   GLY B   2       9.973  90.676  64.345  1.00  0.00     0.236 C 
ATOM     25  O   GLY B   2      10.911  89.887  64.442  1.00  0.00    -0.272 OA
ATOM     26  H   TRP B   3       8.036  90.980  63.941  1.00  0.23     0.163 HD
BRANCH  24  27
ATOM     27  CA  GLY B   2      10.178  92.155  64.609  1.00  0.00     0.225 C 
BRANCH  27  28
ATOM     28  N   GLY B   2      11.107  92.765  63.675  1.00  0.00    -0.350 N 
ATOM     29  C   CYS B   1      12.037  93.632  64.097  1.00  0.00     0.254 C 
ATOM     30  O   CYS B   1      12.130  93.987  65.268  1.00  0.00    -0.271 OA
ATOM     31  H   GLY B   2      11.067  92.530  62.725  1.00  0.23     0.163 HD
BRANCH  29  32
ATOM     32  CA  CYS B   1      12.928  94.202  63.017  1.00  0.00     0.359 C 
BRANCH  32  33
ATOM     33  CB  CYS B   1      14.238  93.408  62.854  1.00  0.00     0.118 C 
BRANCH  33  34
ATOM     34  SG  CYS B   1      15.665  94.517  62.874  1.00  0.00    -0.180 SA
ATOM     35  HG  CYS B   1      15.036  95.595  62.410  1.00  0.00     0.101 HD
ENDBRANCH  33  34
ENDBRANCH  32  33
BRANCH  32  36
ATOM     36  N   CYS B   1      13.261  95.595  63.297  1.00  0.00     0.313 N 
ATOM     37  H   CYS B   1      12.418  96.082  63.754  1.00  0.00     0.359 HD
ENDBRANCH  32  36
ENDBRANCH  29  32
ENDBRANCH  27  28
ENDBRANCH  24  27
ENDBRANCH  11  23
ENDBRANCH   9  11
ENDBRANCH   1   7
BRANCH   1  38
ATOM     38  C   GLU B   4       5.219  87.469  60.867  1.00  0.00     0.241 C 
ATOM     39  N   THR B   5       4.612  88.145  59.897  1.00  7.70    -0.344 N 
ATOM     40  H   THR B   5       5.146  88.487  59.149  1.00  0.23     0.163 HD
ATOM     41  O   GLU B   4       4.622  87.004  61.839  1.00  0.00    -0.271 OA
BRANCH  39  42
ATOM     42  CA  THR B   5       3.173  88.391  59.911  1.00  7.88     0.205 C 
BRANCH  42  43
ATOM     43  C   THR B   5       2.745  89.000  61.242  1.00  7.05     0.243 C 
ATOM     44  N   TRP B   6       3.686  89.645  61.923  1.00  0.00    -0.346 N 
ATOM     45  H   TRP B   6       4.591  89.703  61.552  1.00  0.23     0.163 HD
ATOM     46  O   THR B   5       1.588  88.885  61.644  1.00  6.06    -0.271 OA
BRANCH  44  47
ATOM     47  CA  TRP B   6       3.405  90.268  63.210  1.00  0.00     0.181 C 
BRANCH  47  48
ATOM     48  CB  TRP B   6       3.911  89.380  64.348  1.00  0.00     0.075 C 
BRANCH  48  49
ATOM     49  CG  TRP B   6       2.824  88.964  65.292  1.00  0.00    -0.028 A 
ATOM     50  CD2 TRP B   6       2.053  87.757  65.232  1.00  0.00    -0.002 A 
ATOM     51  CE2 TRP B   6       1.157  87.782  66.317  1.00  0.00     0.042 A 
ATOM     52  CE3 TRP B   6       2.033  86.661  64.365  1.00  0.00     0.014 A 
ATOM     53  CZ2 TRP B   6       0.252  86.751  66.558  1.00  0.00     0.030 A 
ATOM     54  NE1 TRP B   6       1.373  88.948  67.004  1.00  0.00    -0.365 N 
ATOM     55  CH2 TRP B   6       0.253  85.690  65.694  1.00  0.00     0.002 A 
ATOM     56  CZ3 TRP B   6       1.134  85.638  64.606  1.00  0.00     0.001 A 
ATOM     57  HE1 TRP B   6       0.891  89.234  67.809  1.00  0.23     0.165 HD
ATOM     58  CD1 TRP B   6       2.376  89.652  66.382  1.00  0.00     0.096 A 
ENDBRANCH  48  49
ENDBRANCH  47  48
BRANCH  47  59
ATOM     59  C   TRP B   6       4.044  91.650  63.299  1.00  0.00     0.241 C 
ATOM     60  O   TRP B   6       4.322  92.148  64.390  1.00  0.00    -0.271 OA
ATOM     61  N   VAL B   7       4.277  92.261  62.141  1.00  6.11    -0.344 N 
ATOM     62  H   VAL B   7       4.034  91.810  61.306  1.00  0.23     0.163 HD
BRANCH  61  63
ATOM     63  CA  VAL B   7       4.886  93.584  62.082  1.00  5.65     0.189 C 
BRANCH  63  64
ATOM     64  CB  VAL B   7       6.279  93.527  61.425  1.00  1.15     0.010 C 
ATOM     65  CG1 VAL B   7       7.342  93.170  62.454  1.00  4.96     0.012 C 
ATOM     66  CG2 VAL B   7       6.290  92.533  60.273  1.00  9.83     0.012 C 
ENDBRANCH  63  64
BRANCH  63  67
ATOM     67  C   VAL B   7       4.008  94.561  61.307  1.00  4.44     0.197 C 
ATOM     68  OXT VAL B   7       3.598  94.221  60.178  1.00  0.00    -0.646 OA
ATOM     69  O   VAL B   7       3.738  95.659  61.837  1.00  0.00    -0.646 OA
ENDBRANCH  63  67
ENDBRANCH  61  63
ENDBRANCH  47  59
ENDBRANCH  44  47
ENDBRANCH  42  43
BRANCH  42  70
ATOM     70  CB  THR B   5       2.410  87.089  59.664  1.00  4.05     0.146 C 
ATOM     71  CG2 THR B   5       3.099  86.170  58.678  1.00  3.72     0.042 C 
BRANCH  70  72
ATOM     72  OG1 THR B   5       2.240  86.371  60.873  1.00  7.31    -0.393 OA
ATOM     73  HG1 THR B   5       1.606  85.663  60.739  1.00  0.23     0.210 HD
ENDBRANCH  70  72
ENDBRANCH  42  70
ENDBRANCH  39  42
ENDBRANCH   1  38
TORSDOF 26
ENDMDL
