MODEL 1
REMARK VINA RESULT:      -9.2      0.000      0.000
REMARK  29 active torsions:
REMARK  status: ('A' for Active; 'I' for Inactive)
REMARK    1  A    between atoms: N_1  and  CA_2 
REMARK    2  A    between atoms: CA_2  and  CB_5 
REMARK    3  A    between atoms: CA_2  and  C_3 
REMARK       I    between atoms: C_3  and  N_17 
REMARK    4  A    between atoms: CB_5  and  CG_6 
REMARK    5  A    between atoms: CG_6  and  CD_7 
REMARK    6  A    between atoms: CD_7  and  CE_8 
REMARK    7  A    between atoms: CE_8  and  NZ_9 
REMARK    8  A    between atoms: CA_14  and  N_17 
REMARK    9  A    between atoms: CA_14  and  C_15 
REMARK       I    between atoms: C_15  and  N_32 
REMARK   10  A    between atoms: CA_19  and  CB_21 
REMARK   11  A    between atoms: CA_19  and  N_32 
REMARK   12  A    between atoms: CA_19  and  C_20 
REMARK       I    between atoms: C_20  and  N_41 
REMARK   13  A    between atoms: CB_21  and  CG_22 
REMARK   14  A    between atoms: CA_35  and  N_41 
REMARK   15  A    between atoms: CA_35  and  CB_37 
REMARK   16  A    between atoms: CA_35  and  C_36 
REMARK       I    between atoms: C_36  and  N_51 
REMARK   17  A    between atoms: CB_37  and  CG_38 
REMARK   18  A    between atoms: CG_38  and  CD_39 
REMARK   19  A    between atoms: CA_45  and  N_51 
REMARK   20  A    between atoms: CA_45  and  CB_47 
REMARK   21  A    between atoms: CA_45  and  C_46 
REMARK       I    between atoms: C_46  and  N_67 
REMARK   22  A    between atoms: CB_47  and  OG1_53 
REMARK   23  A    between atoms: CA_54  and  CB_56 
REMARK   24  A    between atoms: CA_54  and  N_67 
REMARK   25  A    between atoms: CA_54  and  C_55 
REMARK       I    between atoms: C_55  and  N_76 
REMARK   26  A    between atoms: CB_56  and  CG_57 
REMARK   27  A    between atoms: CA_70  and  N_76 
REMARK   28  A    between atoms: CA_70  and  CB_72 
REMARK   29  A    between atoms: CA_70  and  C_71 
ROOT
ATOM      1  CA  GLU B   4       8.837  93.202  63.119  1.00  0.00     0.177 C 
ENDROOT
BRANCH   1   2
ATOM      2  N   GLU B   4       9.927  93.827  62.371  1.00  0.00    -0.346 N 
ATOM      3  H   GLU B   4      10.140  93.500  61.473  1.00  0.23     0.163 HD
ATOM      4  C   TRP B   3      10.634  94.828  62.888  1.00  0.00     0.241 C 
ATOM      5  O   TRP B   3      10.419  95.286  64.009  1.00  0.00    -0.271 OA
BRANCH   4   6
ATOM      6  CA  TRP B   3      11.748  95.398  62.014  1.00  0.00     0.181 C 
BRANCH   6   7
ATOM      7  CB  TRP B   3      13.037  95.544  62.836  1.00  0.00     0.075 C 
BRANCH   7   8
ATOM      8  CG  TRP B   3      13.757  94.250  63.078  1.00  0.00    -0.028 A 
ATOM      9  CD2 TRP B   3      13.539  93.333  64.158  1.00  0.00    -0.002 A 
ATOM     10  CE2 TRP B   3      14.429  92.257  63.980  1.00  0.00     0.042 A 
ATOM     11  CE3 TRP B   3      12.679  93.318  65.261  1.00  0.00     0.014 A 
ATOM     12  NE1 TRP B   3      15.153  92.505  62.843  1.00  0.00    -0.365 N 
ATOM     13  CZ2 TRP B   3      14.485  91.180  64.861  1.00  0.00     0.030 A 
ATOM     14  HE1 TRP B   3      15.850  91.926  62.471  1.00  0.23     0.165 HD
ATOM     15  CD1 TRP B   3      14.742  93.703  62.307  1.00  0.00     0.096 A 
ATOM     16  CH2 TRP B   3      13.632  91.194  65.931  1.00  0.00     0.002 A 
ATOM     17  CZ3 TRP B   3      12.735  92.248  66.134  1.00  0.00     0.001 A 
ENDBRANCH   7   8
ENDBRANCH   6   7
BRANCH   6  18
ATOM     18  N   TRP B   3      11.353  96.676  61.426  1.00  0.00    -0.346 N 
ATOM     19  H   TRP B   3      10.602  97.170  61.818  1.00  0.23     0.163 HD
ATOM     20  C   GLY B   2      11.983  97.181  60.369  1.00  0.00     0.236 C 
ATOM     21  O   GLY B   2      12.928  96.618  59.819  1.00  0.00    -0.272 OA
BRANCH  20  22
ATOM     22  CA  GLY B   2      11.471  98.512  59.854  1.00  0.00     0.225 C 
BRANCH  22  23
ATOM     23  N   GLY B   2      12.219  98.990  58.704  1.00  0.00    -0.350 N 
ATOM     24  H   GLY B   2      13.050  98.543  58.444  1.00  0.23     0.163 HD
ATOM     25  C   LYS B   1      11.802 100.044  57.995  1.00  0.00     0.254 C 
ATOM     26  O   LYS B   1      10.755 100.645  58.260  1.00  0.00    -0.271 OA
BRANCH  25  27
ATOM     27  CA  LYS B   1      12.668 100.440  56.822  1.00  0.00     0.350 C 
BRANCH  27  28
ATOM     28  CB  LYS B   1      12.097  99.873  55.494  1.00  0.00     0.048 C 
BRANCH  28  29
ATOM     29  CG  LYS B   1      12.844 100.381  54.236  1.00  0.00     0.004 C 
BRANCH  29  30
ATOM     30  CD  LYS B   1      13.052  99.330  53.142  1.00  0.00     0.027 C 
BRANCH  30  31
ATOM     31  CE  LYS B   1      14.520  99.349  52.695  1.00  0.00     0.229 C 
BRANCH  31  32
ATOM     32  NZ  LYS B   1      15.323 100.091  53.682  1.00  0.00    -0.079 N 
ATOM     33  HZ1 LYS B   1      14.799 100.213  54.557  1.00  0.00     0.274 HD
ATOM     34  HZ2 LYS B   1      16.176  99.579  53.930  1.00  0.00     0.274 HD
ATOM     35  HZ3 LYS B   1      15.547 100.979  53.257  1.00  0.00     0.274 HD
ENDBRANCH  31  32
ENDBRANCH  30  31
ENDBRANCH  29  30
ENDBRANCH  28  29
ENDBRANCH  27  28
BRANCH  27  36
ATOM     36  N   LYS B   1      14.039  99.971  57.002  1.00  0.00     0.312 N 
ATOM     37  H   LYS B   1      14.040  98.910  57.127  1.00  0.00     0.359 HD
ENDBRANCH  27  36
ENDBRANCH  25  27
ENDBRANCH  22  23
ENDBRANCH  20  22
ENDBRANCH   6  18
ENDBRANCH   4   6
ENDBRANCH   1   2
BRANCH   1  38
ATOM     38  CB  GLU B   4       7.662  92.888  62.192  1.00  0.00     0.045 C 
BRANCH  38  39
ATOM     39  CG  GLU B   4       7.682  93.686  60.899  1.00  0.00     0.116 C 
BRANCH  39  40
ATOM     40  CD  GLU B   4       6.293  94.060  60.418  1.00  0.00     0.172 C 
ATOM     41  OE2 GLU B   4       6.166  94.498  59.256  1.00  0.00    -0.648 OA
ATOM     42  OE1 GLU B   4       5.334  93.914  61.204  1.00  0.00    -0.648 OA
ENDBRANCH  39  40
ENDBRANCH  38  39
ENDBRANCH   1  38
BRANCH   1  43
ATOM     43  C   GLU B   4       9.311  91.922  63.801  1.00  0.00     0.241 C 
ATOM     44  N   THR B   5       8.399  91.266  64.513  1.00  7.70    -0.344 N 
ATOM     45  H   THR B   5       7.489  91.625  64.566  1.00  0.23     0.163 HD
ATOM     46  O   GLU B   4      10.475  91.538  63.681  1.00  0.00    -0.271 OA
BRANCH  44  47
ATOM     47  CA  THR B   5       8.714  90.025  65.215  1.00  7.88     0.205 C 
BRANCH  47  48
ATOM     48  CB  THR B   5       8.130  90.052  66.628  1.00  4.05     0.146 C 
ATOM     49  CG2 THR B   5       7.238  91.247  66.883  1.00  3.72     0.042 C 
BRANCH  48  50
ATOM     50  OG1 THR B   5       7.366  88.885  66.876  1.00  7.31    -0.393 OA
ATOM     51  HG1 THR B   5       7.449  88.285  66.133  1.00  0.23     0.210 HD
ENDBRANCH  48  50
ENDBRANCH  47  48
BRANCH  47  52
ATOM     52  C   THR B   5       8.171  88.822  64.450  1.00  7.05     0.243 C 
ATOM     53  N   TRP B   6       7.274  89.082  63.505  1.00  0.00    -0.346 N 
ATOM     54  H   TRP B   6       7.006  90.011  63.341  1.00  0.23     0.163 HD
ATOM     55  O   THR B   5       8.554  87.683  64.713  1.00  6.06    -0.271 OA
BRANCH  53  56
ATOM     56  CA  TRP B   6       6.676  88.020  62.707  1.00  0.00     0.181 C 
BRANCH  56  57
ATOM     57  CB  TRP B   6       5.176  88.267  62.537  1.00  0.00     0.075 C 
BRANCH  57  58
ATOM     58  CG  TRP B   6       4.741  89.601  63.062  1.00  0.00    -0.028 A 
ATOM     59  CD2 TRP B   6       4.320  89.900  64.398  1.00  0.00    -0.002 A 
ATOM     60  CE2 TRP B   6       4.012  91.273  64.440  1.00  0.00     0.042 A 
ATOM     61  CE3 TRP B   6       4.173  89.140  65.561  1.00  0.00     0.014 A 
ATOM     62  CZ2 TRP B   6       3.567  91.900  65.601  1.00  0.00     0.030 A 
ATOM     63  NE1 TRP B   6       4.236  91.784  63.188  1.00  0.00    -0.365 N 
ATOM     64  CH2 TRP B   6       3.431  91.133  66.726  1.00  0.00     0.002 A 
ATOM     65  CZ3 TRP B   6       3.730  89.765  66.713  1.00  0.00     0.001 A 
ATOM     66  HE1 TRP B   6       4.105  92.719  62.922  1.00  0.23     0.165 HD
ATOM     67  CD1 TRP B   6       4.673  90.773  62.367  1.00  0.00     0.096 A 
ENDBRANCH  57  58
ENDBRANCH  56  57
BRANCH  56  68
ATOM     68  C   TRP B   6       7.350  87.918  61.342  1.00  0.00     0.241 C 
ATOM     69  N   VAL B   7       6.574  87.529  60.335  1.00  6.11    -0.344 N 
ATOM     70  H   VAL B   7       5.631  87.331  60.508  1.00  0.23     0.163 HD
ATOM     71  O   TRP B   6       8.545  88.183  61.207  1.00  0.00    -0.271 OA
BRANCH  69  72
ATOM     72  CA  VAL B   7       7.092  87.387  58.980  1.00  5.65     0.189 C 
BRANCH  72  73
ATOM     73  CB  VAL B   7       6.307  86.320  58.192  1.00  1.15     0.010 C 
ATOM     74  CG1 VAL B   7       7.180  85.101  57.929  1.00  4.96     0.012 C 
ATOM     75  CG2 VAL B   7       5.040  85.925  58.936  1.00  9.83     0.012 C 
ENDBRANCH  72  73
BRANCH  72  76
ATOM     76  C   VAL B   7       7.028  88.711  58.225  1.00  4.44     0.197 C 
ATOM     77  OXT VAL B   7       5.919  89.268  58.098  1.00  0.00    -0.646 OA
ATOM     78  O   VAL B   7       8.092  89.180  57.768  1.00  0.00    -0.646 OA
ENDBRANCH  72  76
ENDBRANCH  69  72
ENDBRANCH  56  68
ENDBRANCH  53  56
ENDBRANCH  47  52
ENDBRANCH  44  47
ENDBRANCH   1  43
TORSDOF 29
ENDMDL
MODEL 2
REMARK VINA RESULT:      -8.0      1.840      2.503
REMARK  29 active torsions:
REMARK  status: ('A' for Active; 'I' for Inactive)
REMARK    1  A    between atoms: N_1  and  CA_2 
REMARK    2  A    between atoms: CA_2  and  CB_5 
REMARK    3  A    between atoms: CA_2  and  C_3 
REMARK       I    between atoms: C_3  and  N_17 
REMARK    4  A    between atoms: CB_5  and  CG_6 
REMARK    5  A    between atoms: CG_6  and  CD_7 
REMARK    6  A    between atoms: CD_7  and  CE_8 
REMARK    7  A    between atoms: CE_8  and  NZ_9 
REMARK    8  A    between atoms: CA_14  and  N_17 
REMARK    9  A    between atoms: CA_14  and  C_15 
REMARK       I    between atoms: C_15  and  N_32 
REMARK   10  A    between atoms: CA_19  and  CB_21 
REMARK   11  A    between atoms: CA_19  and  N_32 
REMARK   12  A    between atoms: CA_19  and  C_20 
REMARK       I    between atoms: C_20  and  N_41 
REMARK   13  A    between atoms: CB_21  and  CG_22 
REMARK   14  A    between atoms: CA_35  and  N_41 
REMARK   15  A    between atoms: CA_35  and  CB_37 
REMARK   16  A    between atoms: CA_35  and  C_36 
REMARK       I    between atoms: C_36  and  N_51 
REMARK   17  A    between atoms: CB_37  and  CG_38 
REMARK   18  A    between atoms: CG_38  and  CD_39 
REMARK   19  A    between atoms: CA_45  and  N_51 
REMARK   20  A    between atoms: CA_45  and  CB_47 
REMARK   21  A    between atoms: CA_45  and  C_46 
REMARK       I    between atoms: C_46  and  N_67 
REMARK   22  A    between atoms: CB_47  and  OG1_53 
REMARK   23  A    between atoms: CA_54  and  CB_56 
REMARK   24  A    between atoms: CA_54  and  N_67 
REMARK   25  A    between atoms: CA_54  and  C_55 
REMARK       I    between atoms: C_55  and  N_76 
REMARK   26  A    between atoms: CB_56  and  CG_57 
REMARK   27  A    between atoms: CA_70  and  N_76 
REMARK   28  A    between atoms: CA_70  and  CB_72 
REMARK   29  A    between atoms: CA_70  and  C_71 
ROOT
ATOM      1  CA  GLU B   4       8.498  93.356  62.906  1.00  0.00     0.177 C 
ENDROOT
BRANCH   1   2
ATOM      2  N   GLU B   4       9.717  93.900  62.310  1.00  0.00    -0.346 N 
ATOM      3  H   GLU B   4       9.950  93.655  61.391  1.00  0.23     0.163 HD
ATOM      4  C   TRP B   3      10.515  94.717  62.992  1.00  0.00     0.241 C 
ATOM      5  O   TRP B   3      10.281  95.064  64.149  1.00  0.00    -0.271 OA
BRANCH   4   6
ATOM      6  CA  TRP B   3      11.759  95.218  62.265  1.00  0.00     0.181 C 
BRANCH   6   7
ATOM      7  CB  TRP B   3      12.980  95.127  63.191  1.00  0.00     0.075 C 
BRANCH   7   8
ATOM      8  CG  TRP B   3      13.569  93.751  63.294  1.00  0.00    -0.028 A 
ATOM      9  CD2 TRP B   3      13.287  92.767  64.298  1.00  0.00    -0.002 A 
ATOM     10  CE2 TRP B   3      14.056  91.628  63.994  1.00  0.00     0.042 A 
ATOM     11  CE3 TRP B   3      12.460  92.739  65.425  1.00  0.00     0.014 A 
ATOM     12  NE1 TRP B   3      14.771  91.904  62.858  1.00  0.00    -0.365 N 
ATOM     13  CZ2 TRP B   3      14.024  90.475  64.776  1.00  0.00     0.030 A 
ATOM     14  HE1 TRP B   3      15.395  91.293  62.413  1.00  0.23     0.165 HD
ATOM     15  CD1 TRP B   3      14.471  93.180  62.443  1.00  0.00     0.096 A 
ATOM     16  CH2 TRP B   3      13.206  90.478  65.873  1.00  0.00     0.002 A 
ATOM     17  CZ3 TRP B   3      12.428  91.595  66.199  1.00  0.00     0.001 A 
ENDBRANCH   7   8
ENDBRANCH   6   7
BRANCH   6  18
ATOM     18  N   TRP B   3      11.571  96.581  61.777  1.00  0.00    -0.346 N 
ATOM     19  H   TRP B   3      10.970  97.185  62.265  1.00  0.23     0.163 HD
ATOM     20  C   GLY B   2      12.186  97.023  60.683  1.00  0.00     0.236 C 
ATOM     21  O   GLY B   2      12.948  96.326  60.015  1.00  0.00    -0.272 OA
BRANCH  20  22
ATOM     22  CA  GLY B   2      11.900  98.457  60.283  1.00  0.00     0.225 C 
BRANCH  22  23
ATOM     23  N   GLY B   2      12.400  98.776  58.958  1.00  0.00    -0.350 N 
ATOM     24  H   GLY B   2      13.316  98.534  58.711  1.00  0.23     0.163 HD
ATOM     25  C   LYS B   1      11.636  99.411  58.062  1.00  0.00     0.254 C 
ATOM     26  O   LYS B   1      10.468  99.732  58.302  1.00  0.00    -0.271 OA
BRANCH  25  27
ATOM     27  CA  LYS B   1      12.273  99.683  56.719  1.00  0.00     0.350 C 
BRANCH  27  28
ATOM     28  CB  LYS B   1      13.823  99.659  56.825  1.00  0.00     0.048 C 
BRANCH  28  29
ATOM     29  CG  LYS B   1      14.531 100.376  55.649  1.00  0.00     0.004 C 
BRANCH  29  30
ATOM     30  CD  LYS B   1      15.890  99.787  55.260  1.00  0.00     0.027 C 
BRANCH  30  31
ATOM     31  CE  LYS B   1      16.839 100.926  54.863  1.00  0.00     0.229 C 
BRANCH  31  32
ATOM     32  NZ  LYS B   1      17.125 100.845  53.420  1.00  0.00    -0.079 N 
ATOM     33  HZ1 LYS B   1      17.591  99.958  53.192  1.00  0.00     0.274 HD
ATOM     34  HZ2 LYS B   1      16.262 100.863  52.867  1.00  0.00     0.274 HD
ATOM     35  HZ3 LYS B   1      17.709 101.639  53.200  1.00  0.00     0.274 HD
ENDBRANCH  31  32
ENDBRANCH  30  31
ENDBRANCH  29  30
ENDBRANCH  28  29
ENDBRANCH  27  28
BRANCH  27  36
ATOM     36  N   LYS B   1      11.841 100.972  56.187  1.00  0.00     0.312 N 
ATOM     37  H   LYS B   1      10.775 101.013  56.173  1.00  0.00     0.359 HD
ENDBRANCH  27  36
ENDBRANCH  25  27
ENDBRANCH  22  23
ENDBRANCH  20  22
ENDBRANCH   6  18
ENDBRANCH   4   6
ENDBRANCH   1   2
BRANCH   1  38
ATOM     38  CB  GLU B   4       7.459  93.057  61.825  1.00  0.00     0.045 C 
BRANCH  38  39
ATOM     39  CG  GLU B   4       6.156  92.501  62.376  1.00  0.00     0.116 C 
BRANCH  39  40
ATOM     40  CD  GLU B   4       5.337  93.544  63.111  1.00  0.00     0.172 C 
ATOM     41  OE2 GLU B   4       5.266  93.475  64.355  1.00  0.00    -0.648 OA
ATOM     42  OE1 GLU B   4       4.767  94.430  62.441  1.00  0.00    -0.648 OA
ENDBRANCH  39  40
ENDBRANCH  38  39
ENDBRANCH   1  38
BRANCH   1  43
ATOM     43  C   GLU B   4       8.799  92.086  63.696  1.00  0.00     0.241 C 
ATOM     44  N   THR B   5       7.914  91.754  64.632  1.00  7.70    -0.344 N 
ATOM     45  H   THR B   5       7.130  92.326  64.769  1.00  0.23     0.163 HD
ATOM     46  O   GLU B   4       9.808  91.421  63.459  1.00  0.00    -0.271 OA
BRANCH  44  47
ATOM     47  CA  THR B   5       8.076  90.562  65.459  1.00  7.88     0.205 C 
BRANCH  47  48
ATOM     48  CB  THR B   5       7.354  90.742  66.796  1.00  4.05     0.146 C 
ATOM     49  CG2 THR B   5       8.294  90.789  67.981  1.00  3.72     0.042 C 
BRANCH  48  50
ATOM     50  OG1 THR B   5       6.600  91.941  66.800  1.00  7.31    -0.393 OA
ATOM     51  HG1 THR B   5       6.294  92.124  67.691  1.00  0.23     0.210 HD
ENDBRANCH  48  50
ENDBRANCH  47  48
BRANCH  47  52
ATOM     52  C   THR B   5       7.536  89.331  64.738  1.00  7.05     0.243 C 
ATOM     53  N   TRP B   6       6.687  89.557  63.742  1.00  0.00    -0.346 N 
ATOM     54  H   TRP B   6       6.450  90.481  63.516  1.00  0.23     0.163 HD
ATOM     55  O   THR B   5       7.879  88.200  65.081  1.00  6.06    -0.271 OA
BRANCH  53  56
ATOM     56  CA  TRP B   6       6.098  88.466  62.977  1.00  0.00     0.181 C 
BRANCH  56  57
ATOM     57  CB  TRP B   6       4.674  88.826  62.553  1.00  0.00     0.075 C 
BRANCH  57  58
ATOM     58  CG  TRP B   6       3.629  88.047  63.291  1.00  0.00    -0.028 A 
ATOM     59  CD2 TRP B   6       3.142  86.740  62.960  1.00  0.00    -0.002 A 
ATOM     60  CE2 TRP B   6       2.177  86.399  63.926  1.00  0.00     0.042 A 
ATOM     61  CE3 TRP B   6       3.427  85.829  61.940  1.00  0.00     0.014 A 
ATOM     62  CZ2 TRP B   6       1.498  85.184  63.902  1.00  0.00     0.030 A 
ATOM     63  NE1 TRP B   6       2.082  87.448  64.804  1.00  0.00    -0.365 N 
ATOM     64  CH2 TRP B   6       1.796  84.309  62.892  1.00  0.00     0.002 A 
ATOM     65  CZ3 TRP B   6       2.751  84.622  61.918  1.00  0.00     0.001 A 
ATOM     66  HE1 TRP B   6       1.487  87.489  65.582  1.00  0.23     0.165 HD
ATOM     67  CD1 TRP B   6       2.958  88.433  64.415  1.00  0.00     0.096 A 
ENDBRANCH  57  58
ENDBRANCH  56  57
BRANCH  56  68
ATOM     68  C   TRP B   6       6.945  88.139  61.752  1.00  0.00     0.241 C 
ATOM     69  N   VAL B   7       6.294  87.629  60.710  1.00  6.11    -0.344 N 
ATOM     70  H   VAL B   7       5.327  87.491  60.774  1.00  0.23     0.163 HD
ATOM     71  O   TRP B   6       8.160  88.341  61.752  1.00  0.00    -0.271 OA
BRANCH  69  72
ATOM     72  CA  VAL B   7       6.984  87.270  59.478  1.00  5.65     0.189 C 
BRANCH  72  73
ATOM     73  CB  VAL B   7       6.344  86.029  58.823  1.00  1.15     0.010 C 
ATOM     74  CG1 VAL B   7       4.828  86.158  58.803  1.00  4.96     0.012 C 
ATOM     75  CG2 VAL B   7       6.887  85.824  57.417  1.00  9.83     0.012 C 
ENDBRANCH  72  73
BRANCH  72  76
ATOM     76  C   VAL B   7       6.967  88.424  58.480  1.00  4.44     0.197 C 
ATOM     77  OXT VAL B   7       5.866  88.923  58.171  1.00  0.00    -0.646 OA
ATOM     78  O   VAL B   7       8.058  88.820  58.019  1.00  0.00    -0.646 OA
ENDBRANCH  72  76
ENDBRANCH  69  72
ENDBRANCH  56  68
ENDBRANCH  53  56
ENDBRANCH  47  52
ENDBRANCH  44  47
ENDBRANCH   1  43
TORSDOF 29
ENDMDL
MODEL 3
REMARK VINA RESULT:      -7.6      2.101      6.824
REMARK  29 active torsions:
REMARK  status: ('A' for Active; 'I' for Inactive)
REMARK    1  A    between atoms: N_1  and  CA_2 
REMARK    2  A    between atoms: CA_2  and  CB_5 
REMARK    3  A    between atoms: CA_2  and  C_3 
REMARK       I    between atoms: C_3  and  N_17 
REMARK    4  A    between atoms: CB_5  and  CG_6 
REMARK    5  A    between atoms: CG_6  and  CD_7 
REMARK    6  A    between atoms: CD_7  and  CE_8 
REMARK    7  A    between atoms: CE_8  and  NZ_9 
REMARK    8  A    between atoms: CA_14  and  N_17 
REMARK    9  A    between atoms: CA_14  and  C_15 
REMARK       I    between atoms: C_15  and  N_32 
REMARK   10  A    between atoms: CA_19  and  CB_21 
REMARK   11  A    between atoms: CA_19  and  N_32 
REMARK   12  A    between atoms: CA_19  and  C_20 
REMARK       I    between atoms: C_20  and  N_41 
REMARK   13  A    between atoms: CB_21  and  CG_22 
REMARK   14  A    between atoms: CA_35  and  N_41 
REMARK   15  A    between atoms: CA_35  and  CB_37 
REMARK   16  A    between atoms: CA_35  and  C_36 
REMARK       I    between atoms: C_36  and  N_51 
REMARK   17  A    between atoms: CB_37  and  CG_38 
REMARK   18  A    between atoms: CG_38  and  CD_39 
REMARK   19  A    between atoms: CA_45  and  N_51 
REMARK   20  A    between atoms: CA_45  and  CB_47 
REMARK   21  A    between atoms: CA_45  and  C_46 
REMARK       I    between atoms: C_46  and  N_67 
REMARK   22  A    between atoms: CB_47  and  OG1_53 
REMARK   23  A    between atoms: CA_54  and  CB_56 
REMARK   24  A    between atoms: CA_54  and  N_67 
REMARK   25  A    between atoms: CA_54  and  C_55 
REMARK       I    between atoms: C_55  and  N_76 
REMARK   26  A    between atoms: CB_56  and  CG_57 
REMARK   27  A    between atoms: CA_70  and  N_76 
REMARK   28  A    between atoms: CA_70  and  CB_72 
REMARK   29  A    between atoms: CA_70  and  C_71 
ROOT
ATOM      1  CA  GLU B   4       8.781  93.907  62.376  1.00  0.00     0.177 C 
ENDROOT
BRANCH   1   2
ATOM      2  N   GLU B   4      10.030  94.439  61.836  1.00  0.00    -0.346 N 
ATOM      3  H   GLU B   4      10.304  94.191  60.928  1.00  0.23     0.163 HD
ATOM      4  C   TRP B   3      10.803  95.250  62.553  1.00  0.00     0.241 C 
ATOM      5  O   TRP B   3      10.520  95.600  63.698  1.00  0.00    -0.271 OA
BRANCH   4   6
ATOM      6  CA  TRP B   3      12.084  95.739  61.883  1.00  0.00     0.181 C 
BRANCH   6   7
ATOM      7  CB  TRP B   3      11.846  95.941  60.380  1.00  0.00     0.075 C 
BRANCH   7   8
ATOM      8  CG  TRP B   3      12.158  97.326  59.892  1.00  0.00    -0.028 A 
ATOM      9  CD2 TRP B   3      11.460  98.058  58.877  1.00  0.00    -0.002 A 
ATOM     10  CE2 TRP B   3      12.093  99.311  58.755  1.00  0.00     0.042 A 
ATOM     11  CE3 TRP B   3      10.362  97.778  58.058  1.00  0.00     0.014 A 
ATOM     12  NE1 TRP B   3      13.125  99.339  59.655  1.00  0.00    -0.365 N 
ATOM     13  CZ2 TRP B   3      11.665 100.278  57.849  1.00  0.00     0.030 A 
ATOM     14  HE1 TRP B   3      13.743 100.088  59.794  1.00  0.23     0.165 HD
ATOM     15  CD1 TRP B   3      13.157  98.144  60.335  1.00  0.00     0.096 A 
ATOM     16  CH2 TRP B   3      10.589  99.974  57.060  1.00  0.00     0.002 A 
ATOM     17  CZ3 TRP B   3       9.939  98.739  57.159  1.00  0.00     0.001 A 
ENDBRANCH   7   8
ENDBRANCH   6   7
BRANCH   6  18
ATOM     18  N   TRP B   3      13.188  94.813  62.120  1.00  0.00    -0.346 N 
ATOM     19  H   TRP B   3      13.258  94.003  61.571  1.00  0.23     0.163 HD
ATOM     20  C   GLY B   2      14.096  95.037  63.066  1.00  0.00     0.236 C 
ATOM     21  O   GLY B   2      14.073  96.025  63.797  1.00  0.00    -0.272 OA
BRANCH  20  22
ATOM     22  CA  GLY B   2      15.188  93.994  63.210  1.00  0.00     0.225 C 
BRANCH  22  23
ATOM     23  N   GLY B   2      14.922  93.054  64.285  1.00  0.00    -0.350 N 
ATOM     24  H   GLY B   2      15.371  93.163  65.149  1.00  0.23     0.163 HD
ATOM     25  C   LYS B   1      14.083  92.028  64.117  1.00  0.00     0.254 C 
ATOM     26  O   LYS B   1      13.473  91.841  63.059  1.00  0.00    -0.271 OA
BRANCH  25  27
ATOM     27  CA  LYS B   1      13.891  91.124  65.313  1.00  0.00     0.350 C 
BRANCH  27  28
ATOM     28  CB  LYS B   1      12.483  90.468  65.293  1.00  0.00     0.048 C 
BRANCH  28  29
ATOM     29  CG  LYS B   1      11.628  90.809  66.539  1.00  0.00     0.004 C 
BRANCH  29  30
ATOM     30  CD  LYS B   1      10.839  89.632  67.120  1.00  0.00     0.027 C 
BRANCH  30  31
ATOM     31  CE  LYS B   1       9.879  90.150  68.199  1.00  0.00     0.229 C 
BRANCH  31  32
ATOM     32  NZ  LYS B   1       8.761  89.204  68.354  1.00  0.00    -0.079 N 
ATOM     33  HZ1 LYS B   1       7.871  89.651  68.103  1.00  0.00     0.274 HD
ATOM     34  HZ2 LYS B   1       8.862  88.399  67.728  1.00  0.00     0.274 HD
ATOM     35  HZ3 LYS B   1       8.768  88.910  69.321  1.00  0.00     0.274 HD
ENDBRANCH  31  32
ENDBRANCH  30  31
ENDBRANCH  29  30
ENDBRANCH  28  29
ENDBRANCH  27  28
BRANCH  27  36
ATOM     36  N   LYS B   1      14.066  91.862  66.560  1.00  0.00     0.312 N 
ATOM     37  H   LYS B   1      14.442  91.206  67.314  1.00  0.00     0.359 HD
ENDBRANCH  27  36
ENDBRANCH  25  27
ENDBRANCH  22  23
ENDBRANCH  20  22
ENDBRANCH   6  18
ENDBRANCH   4   6
ENDBRANCH   1   2
BRANCH   1  38
ATOM     38  CB  GLU B   4       7.905  93.349  61.253  1.00  0.00     0.045 C 
BRANCH  38  39
ATOM     39  CG  GLU B   4       6.416  93.480  61.526  1.00  0.00     0.116 C 
BRANCH  39  40
ATOM     40  CD  GLU B   4       5.572  92.629  60.595  1.00  0.00     0.172 C 
ATOM     41  OE2 GLU B   4       5.967  91.476  60.325  1.00  0.00    -0.648 OA
ATOM     42  OE1 GLU B   4       4.518  93.117  60.138  1.00  0.00    -0.648 OA
ENDBRANCH  39  40
ENDBRANCH  38  39
ENDBRANCH   1  38
BRANCH   1  43
ATOM     43  C   GLU B   4       9.055  92.814  63.405  1.00  0.00     0.241 C 
ATOM     44  N   THR B   5       8.036  92.481  64.192  1.00  7.70    -0.344 N 
ATOM     45  H   THR B   5       7.178  92.941  64.078  1.00  0.23     0.163 HD
ATOM     46  O   GLU B   4      10.164  92.284  63.481  1.00  0.00    -0.271 OA
BRANCH  44  47
ATOM     47  CA  THR B   5       8.158  91.449  65.217  1.00  7.88     0.205 C 
BRANCH  47  48
ATOM     48  CB  THR B   5       7.450  91.890  66.500  1.00  4.05     0.146 C 
ATOM     49  CG2 THR B   5       6.687  93.187  66.345  1.00  3.72     0.042 C 
BRANCH  48  50
ATOM     50  OG1 THR B   5       6.532  90.900  66.930  1.00  7.31    -0.393 OA
ATOM     51  HG1 THR B   5       7.001  90.216  67.412  1.00  0.23     0.210 HD
ENDBRANCH  48  50
ENDBRANCH  47  48
BRANCH  47  52
ATOM     52  C   THR B   5       7.570  90.130  64.725  1.00  7.05     0.243 C 
ATOM     53  N   TRP B   6       6.777  90.200  63.662  1.00  0.00    -0.346 N 
ATOM     54  H   TRP B   6       6.607  91.072  63.248  1.00  0.23     0.163 HD
ATOM     55  O   THR B   5       7.828  89.073  65.299  1.00  6.06    -0.271 OA
BRANCH  53  56
ATOM     56  CA  TRP B   6       6.150  89.012  63.097  1.00  0.00     0.181 C 
BRANCH  56  57
ATOM     57  CB  TRP B   6       4.726  89.332  62.641  1.00  0.00     0.075 C 
BRANCH  57  58
ATOM     58  CG  TRP B   6       3.710  89.150  63.726  1.00  0.00    -0.028 A 
ATOM     59  CD2 TRP B   6       3.317  90.120  64.704  1.00  0.00    -0.002 A 
ATOM     60  CE2 TRP B   6       2.334  89.521  65.514  1.00  0.00     0.042 A 
ATOM     61  CE3 TRP B   6       3.702  91.436  64.973  1.00  0.00     0.014 A 
ATOM     62  CZ2 TRP B   6       1.732  90.194  66.573  1.00  0.00     0.030 A 
ATOM     63  NE1 TRP B   6       2.139  88.245  65.050  1.00  0.00    -0.365 N 
ATOM     64  CH2 TRP B   6       2.127  91.481  66.815  1.00  0.00     0.002 A 
ATOM     65  CZ3 TRP B   6       3.102  92.103  66.026  1.00  0.00     0.001 A 
ATOM     66  HE1 TRP B   6       1.510  87.593  65.424  1.00  0.23     0.165 HD
ATOM     67  CD1 TRP B   6       2.969  88.031  63.977  1.00  0.00     0.096 A 
ENDBRANCH  57  58
ENDBRANCH  56  57
BRANCH  56  68
ATOM     68  C   TRP B   6       6.967  88.468  61.930  1.00  0.00     0.241 C 
ATOM     69  N   VAL B   7       6.294  88.226  60.808  1.00  6.11    -0.344 N 
ATOM     70  H   VAL B   7       5.332  88.405  60.782  1.00  0.23     0.163 HD
ATOM     71  O   TRP B   6       8.177  88.268  62.044  1.00  0.00    -0.271 OA
BRANCH  69  72
ATOM     72  CA  VAL B   7       6.953  87.702  59.619  1.00  5.65     0.189 C 
BRANCH  72  73
ATOM     73  CB  VAL B   7       6.237  86.440  59.097  1.00  1.15     0.010 C 
ATOM     74  CG1 VAL B   7       7.006  85.835  57.931  1.00  4.96     0.012 C 
ATOM     75  CG2 VAL B   7       6.060  85.422  60.213  1.00  9.83     0.012 C 
ENDBRANCH  72  73
BRANCH  72  76
ATOM     76  C   VAL B   7       6.996  88.746  58.507  1.00  4.44     0.197 C 
ATOM     77  OXT VAL B   7       5.916  89.149  58.030  1.00  0.00    -0.646 OA
ATOM     78  O   VAL B   7       8.113  89.153  58.125  1.00  0.00    -0.646 OA
ENDBRANCH  72  76
ENDBRANCH  69  72
ENDBRANCH  56  68
ENDBRANCH  53  56
ENDBRANCH  47  52
ENDBRANCH  44  47
ENDBRANCH   1  43
TORSDOF 29
ENDMDL
MODEL 4
REMARK VINA RESULT:      -7.0      2.393      7.194
REMARK  29 active torsions:
REMARK  status: ('A' for Active; 'I' for Inactive)
REMARK    1  A    between atoms: N_1  and  CA_2 
REMARK    2  A    between atoms: CA_2  and  CB_5 
REMARK    3  A    between atoms: CA_2  and  C_3 
REMARK       I    between atoms: C_3  and  N_17 
REMARK    4  A    between atoms: CB_5  and  CG_6 
REMARK    5  A    between atoms: CG_6  and  CD_7 
REMARK    6  A    between atoms: CD_7  and  CE_8 
REMARK    7  A    between atoms: CE_8  and  NZ_9 
REMARK    8  A    between atoms: CA_14  and  N_17 
REMARK    9  A    between atoms: CA_14  and  C_15 
REMARK       I    between atoms: C_15  and  N_32 
REMARK   10  A    between atoms: CA_19  and  CB_21 
REMARK   11  A    between atoms: CA_19  and  N_32 
REMARK   12  A    between atoms: CA_19  and  C_20 
REMARK       I    between atoms: C_20  and  N_41 
REMARK   13  A    between atoms: CB_21  and  CG_22 
REMARK   14  A    between atoms: CA_35  and  N_41 
REMARK   15  A    between atoms: CA_35  and  CB_37 
REMARK   16  A    between atoms: CA_35  and  C_36 
REMARK       I    between atoms: C_36  and  N_51 
REMARK   17  A    between atoms: CB_37  and  CG_38 
REMARK   18  A    between atoms: CG_38  and  CD_39 
REMARK   19  A    between atoms: CA_45  and  N_51 
REMARK   20  A    between atoms: CA_45  and  CB_47 
REMARK   21  A    between atoms: CA_45  and  C_46 
REMARK       I    between atoms: C_46  and  N_67 
REMARK   22  A    between atoms: CB_47  and  OG1_53 
REMARK   23  A    between atoms: CA_54  and  CB_56 
REMARK   24  A    between atoms: CA_54  and  N_67 
REMARK   25  A    between atoms: CA_54  and  C_55 
REMARK       I    between atoms: C_55  and  N_76 
REMARK   26  A    between atoms: CB_56  and  CG_57 
REMARK   27  A    between atoms: CA_70  and  N_76 
REMARK   28  A    between atoms: CA_70  and  CB_72 
REMARK   29  A    between atoms: CA_70  and  C_71 
ROOT
ATOM      1  CA  GLU B   4       8.707  93.822  62.309  1.00  0.00     0.177 C 
ENDROOT
BRANCH   1   2
ATOM      2  N   GLU B   4       9.968  94.361  61.803  1.00  0.00    -0.346 N 
ATOM      3  H   GLU B   4      10.267  94.116  60.903  1.00  0.23     0.163 HD
ATOM      4  C   TRP B   3      10.718  95.175  62.541  1.00  0.00     0.241 C 
ATOM      5  O   TRP B   3      10.402  95.521  63.679  1.00  0.00    -0.271 OA
BRANCH   4   6
ATOM      6  CA  TRP B   3      12.013  95.672  61.906  1.00  0.00     0.181 C 
BRANCH   6   7
ATOM      7  CB  TRP B   3      11.807  95.896  60.401  1.00  0.00     0.075 C 
BRANCH   7   8
ATOM      8  CG  TRP B   3      12.126  97.289  59.942  1.00  0.00    -0.028 A 
ATOM      9  CD2 TRP B   3      11.444  98.038  58.928  1.00  0.00    -0.002 A 
ATOM     10  CE2 TRP B   3      12.077  99.293  58.838  1.00  0.00     0.042 A 
ATOM     11  CE3 TRP B   3      10.360  97.771  58.087  1.00  0.00     0.014 A 
ATOM     12  NE1 TRP B   3      13.095  99.307  59.755  1.00  0.00    -0.365 N 
ATOM     13  CZ2 TRP B   3      11.664 100.275  57.941  1.00  0.00     0.030 A 
ATOM     14  HE1 TRP B   3      13.709 100.054  59.916  1.00  0.23     0.165 HD
ATOM     15  CD1 TRP B   3      13.117  98.101  60.415  1.00  0.00     0.096 A 
ATOM     16  CH2 TRP B   3      10.601  99.983  57.129  1.00  0.00     0.002 A 
ATOM     17  CZ3 TRP B   3       9.951  98.746  57.197  1.00  0.00     0.001 A 
ENDBRANCH   7   8
ENDBRANCH   6   7
BRANCH   6  18
ATOM     18  N   TRP B   3      13.110  94.740  62.152  1.00  0.00    -0.346 N 
ATOM     19  H   TRP B   3      13.149  93.902  61.643  1.00  0.23     0.163 HD
ATOM     20  C   GLY B   2      14.054  94.996  63.054  1.00  0.00     0.236 C 
ATOM     21  O   GLY B   2      14.071  96.020  63.734  1.00  0.00    -0.272 OA
BRANCH  20  22
ATOM     22  CA  GLY B   2      15.134  93.943  63.215  1.00  0.00     0.225 C 
BRANCH  22  23
ATOM     23  N   GLY B   2      14.847  93.010  64.289  1.00  0.00    -0.350 N 
ATOM     24  H   GLY B   2      15.251  93.143  65.172  1.00  0.23     0.163 HD
ATOM     25  C   LYS B   1      14.048  91.955  64.097  1.00  0.00     0.254 C 
ATOM     26  O   LYS B   1      13.495  91.736  63.014  1.00  0.00    -0.271 OA
BRANCH  25  27
ATOM     27  CA  LYS B   1      13.828  91.061  65.295  1.00  0.00     0.350 C 
BRANCH  27  28
ATOM     28  CB  LYS B   1      12.449  90.351  65.211  1.00  0.00     0.048 C 
BRANCH  28  29
ATOM     29  CG  LYS B   1      11.476  90.759  66.345  1.00  0.00     0.004 C 
BRANCH  29  30
ATOM     30  CD  LYS B   1      11.330  89.729  67.470  1.00  0.00     0.027 C 
BRANCH  30  31
ATOM     31  CE  LYS B   1       9.839  89.492  67.747  1.00  0.00     0.229 C 
BRANCH  31  32
ATOM     32  NZ  LYS B   1       9.347  88.406  66.882  1.00  0.00    -0.079 N 
ATOM     33  HZ1 LYS B   1       8.682  87.811  67.390  1.00  0.00     0.274 HD
ATOM     34  HZ2 LYS B   1       8.839  88.774  66.072  1.00  0.00     0.274 HD
ATOM     35  HZ3 LYS B   1      10.162  87.885  66.589  1.00  0.00     0.274 HD
ENDBRANCH  31  32
ENDBRANCH  30  31
ENDBRANCH  29  30
ENDBRANCH  28  29
ENDBRANCH  27  28
BRANCH  27  36
ATOM     36  N   LYS B   1      13.908  91.823  66.538  1.00  0.00     0.312 N 
ATOM     37  H   LYS B   1      13.349  92.727  66.440  1.00  0.00     0.359 HD
ENDBRANCH  27  36
ENDBRANCH  25  27
ENDBRANCH  22  23
ENDBRANCH  20  22
ENDBRANCH   6  18
ENDBRANCH   4   6
ENDBRANCH   1   2
BRANCH   1  38
ATOM     38  CB  GLU B   4       7.813  93.373  61.152  1.00  0.00     0.045 C 
BRANCH  38  39
ATOM     39  CG  GLU B   4       6.528  94.175  61.036  1.00  0.00     0.116 C 
BRANCH  39  40
ATOM     40  CD  GLU B   4       5.315  93.417  61.541  1.00  0.00     0.172 C 
ATOM     41  OE2 GLU B   4       5.409  92.801  62.623  1.00  0.00    -0.648 OA
ATOM     42  OE1 GLU B   4       4.273  93.439  60.855  1.00  0.00    -0.648 OA
ENDBRANCH  39  40
ENDBRANCH  38  39
ENDBRANCH   1  38
BRANCH   1  43
ATOM     43  C   GLU B   4       8.958  92.648  63.251  1.00  0.00     0.241 C 
ATOM     44  N   THR B   5       7.883  92.125  63.834  1.00  7.70    -0.344 N 
ATOM     45  H   THR B   5       7.002  92.508  63.639  1.00  0.23     0.163 HD
ATOM     46  O   GLU B   4      10.099  92.225  63.441  1.00  0.00    -0.271 OA
BRANCH  44  47
ATOM     47  CA  THR B   5       7.977  90.997  64.756  1.00  7.88     0.205 C 
BRANCH  47  48
ATOM     48  CB  THR B   5       7.451  91.394  66.136  1.00  4.05     0.146 C 
ATOM     49  CG2 THR B   5       6.641  92.671  66.122  1.00  3.72     0.042 C 
BRANCH  48  50
ATOM     50  OG1 THR B   5       6.630  90.371  66.672  1.00  7.31    -0.393 OA
ATOM     51  HG1 THR B   5       6.118  89.970  65.968  1.00  0.23     0.210 HD
ENDBRANCH  48  50
ENDBRANCH  47  48
BRANCH  47  52
ATOM     52  C   THR B   5       7.192  89.802  64.224  1.00  7.05     0.243 C 
ATOM     53  N   TRP B   6       6.092  90.081  63.533  1.00  0.00    -0.346 N 
ATOM     54  H   TRP B   6       5.837  91.018  63.397  1.00  0.23     0.163 HD
ATOM     55  O   THR B   5       7.574  88.652  64.438  1.00  6.06    -0.271 OA
BRANCH  53  56
ATOM     56  CA  TRP B   6       5.253  89.028  62.976  1.00  0.00     0.181 C 
BRANCH  56  57
ATOM     57  CB  TRP B   6       3.796  89.239  63.392  1.00  0.00     0.075 C 
BRANCH  57  58
ATOM     58  CG  TRP B   6       2.901  88.113  62.973  1.00  0.00    -0.028 A 
ATOM     59  CD2 TRP B   6       2.062  88.072  61.812  1.00  0.00    -0.002 A 
ATOM     60  CE2 TRP B   6       1.409  86.825  61.814  1.00  0.00     0.042 A 
ATOM     61  CE3 TRP B   6       1.800  88.968  60.773  1.00  0.00     0.014 A 
ATOM     62  CZ2 TRP B   6       0.511  86.454  60.817  1.00  0.00     0.030 A 
ATOM     63  NE1 TRP B   6       1.831  86.140  62.924  1.00  0.00    -0.365 N 
ATOM     64  CH2 TRP B   6       0.273  87.351  59.811  1.00  0.00     0.002 A 
ATOM     65  CZ3 TRP B   6       0.908  88.598  59.782  1.00  0.00     0.001 A 
ATOM     66  HE1 TRP B   6       1.541  85.240  63.184  1.00  0.23     0.165 HD
ATOM     67  CD1 TRP B   6       2.726  86.921  63.614  1.00  0.00     0.096 A 
ENDBRANCH  57  58
ENDBRANCH  56  57
BRANCH  56  68
ATOM     68  C   TRP B   6       5.365  88.990  61.455  1.00  0.00     0.241 C 
ATOM     69  N   VAL B   7       5.653  87.807  60.920  1.00  6.11    -0.344 N 
ATOM     70  H   VAL B   7       5.775  87.034  61.509  1.00  0.23     0.163 HD
ATOM     71  O   TRP B   6       5.199  90.008  60.784  1.00  0.00    -0.271 OA
BRANCH  69  72
ATOM     72  CA  VAL B   7       5.792  87.631  59.480  1.00  5.65     0.189 C 
BRANCH  72  73
ATOM     73  CB  VAL B   7       7.275  87.632  59.060  1.00  1.15     0.010 C 
ATOM     74  CG1 VAL B   7       7.609  88.899  58.285  1.00  4.96     0.012 C 
ATOM     75  CG2 VAL B   7       8.179  87.489  60.275  1.00  9.83     0.012 C 
ENDBRANCH  72  73
BRANCH  72  76
ATOM     76  C   VAL B   7       5.144  86.329  59.019  1.00  4.44     0.197 C 
ATOM     77  OXT VAL B   7       5.838  85.520  58.371  1.00  0.00    -0.646 OA
ATOM     78  O   VAL B   7       3.946  86.131  59.312  1.00  0.00    -0.646 OA
ENDBRANCH  72  76
ENDBRANCH  69  72
ENDBRANCH  56  68
ENDBRANCH  53  56
ENDBRANCH  47  52
ENDBRANCH  44  47
ENDBRANCH   1  43
TORSDOF 29
ENDMDL
MODEL 5
REMARK VINA RESULT:      -6.6      2.316      7.984
REMARK  29 active torsions:
REMARK  status: ('A' for Active; 'I' for Inactive)
REMARK    1  A    between atoms: N_1  and  CA_2 
REMARK    2  A    between atoms: CA_2  and  CB_5 
REMARK    3  A    between atoms: CA_2  and  C_3 
REMARK       I    between atoms: C_3  and  N_17 
REMARK    4  A    between atoms: CB_5  and  CG_6 
REMARK    5  A    between atoms: CG_6  and  CD_7 
REMARK    6  A    between atoms: CD_7  and  CE_8 
REMARK    7  A    between atoms: CE_8  and  NZ_9 
REMARK    8  A    between atoms: CA_14  and  N_17 
REMARK    9  A    between atoms: CA_14  and  C_15 
REMARK       I    between atoms: C_15  and  N_32 
REMARK   10  A    between atoms: CA_19  and  CB_21 
REMARK   11  A    between atoms: CA_19  and  N_32 
REMARK   12  A    between atoms: CA_19  and  C_20 
REMARK       I    between atoms: C_20  and  N_41 
REMARK   13  A    between atoms: CB_21  and  CG_22 
REMARK   14  A    between atoms: CA_35  and  N_41 
REMARK   15  A    between atoms: CA_35  and  CB_37 
REMARK   16  A    between atoms: CA_35  and  C_36 
REMARK       I    between atoms: C_36  and  N_51 
REMARK   17  A    between atoms: CB_37  and  CG_38 
REMARK   18  A    between atoms: CG_38  and  CD_39 
REMARK   19  A    between atoms: CA_45  and  N_51 
REMARK   20  A    between atoms: CA_45  and  CB_47 
REMARK   21  A    between atoms: CA_45  and  C_46 
REMARK       I    between atoms: C_46  and  N_67 
REMARK   22  A    between atoms: CB_47  and  OG1_53 
REMARK   23  A    between atoms: CA_54  and  CB_56 
REMARK   24  A    between atoms: CA_54  and  N_67 
REMARK   25  A    between atoms: CA_54  and  C_55 
REMARK       I    between atoms: C_55  and  N_76 
REMARK   26  A    between atoms: CB_56  and  CG_57 
REMARK   27  A    between atoms: CA_70  and  N_76 
REMARK   28  A    between atoms: CA_70  and  CB_72 
REMARK   29  A    between atoms: CA_70  and  C_71 
ROOT
ATOM      1  CA  GLU B   4       8.781  93.964  62.315  1.00  0.00     0.177 C 
ENDROOT
BRANCH   1   2
ATOM      2  N   GLU B   4      10.054  94.477  61.811  1.00  0.00    -0.346 N 
ATOM      3  H   GLU B   4      10.369  94.191  60.929  1.00  0.23     0.163 HD
ATOM      4  C   TRP B   3      10.792  95.320  62.528  1.00  0.00     0.241 C 
ATOM      5  O   TRP B   3      10.456  95.717  63.642  1.00  0.00    -0.271 OA
BRANCH   4   6
ATOM      6  CA  TRP B   3      12.102  95.784  61.897  1.00  0.00     0.181 C 
BRANCH   6   7
ATOM      7  CB  TRP B   3      11.929  95.934  60.379  1.00  0.00     0.075 C 
BRANCH   7   8
ATOM      8  CG  TRP B   3      12.158  97.328  59.872  1.00  0.00    -0.028 A 
ATOM      9  CD2 TRP B   3      11.411  98.008  58.856  1.00  0.00    -0.002 A 
ATOM     10  CE2 TRP B   3      11.970  99.292  58.714  1.00  0.00     0.042 A 
ATOM     11  CE3 TRP B   3      10.323  97.656  58.051  1.00  0.00     0.014 A 
ATOM     12  NE1 TRP B   3      13.007  99.390  59.604  1.00  0.00    -0.365 N 
ATOM     13  CZ2 TRP B   3      11.481 100.223  57.800  1.00  0.00     0.030 A 
ATOM     14  HE1 TRP B   3      13.582 100.174  59.728  1.00  0.23     0.165 HD
ATOM     15  CD1 TRP B   3      13.113  98.207  60.297  1.00  0.00     0.096 A 
ATOM     16  CH2 TRP B   3      10.417  99.849  57.025  1.00  0.00     0.002 A 
ATOM     17  CZ3 TRP B   3       9.839  98.580  57.145  1.00  0.00     0.001 A 
ENDBRANCH   7   8
ENDBRANCH   6   7
BRANCH   6  18
ATOM     18  N   TRP B   3      13.192  94.864  62.213  1.00  0.00    -0.346 N 
ATOM     19  H   TRP B   3      13.216  93.985  61.779  1.00  0.23     0.163 HD
ATOM     20  C   GLY B   2      14.149  95.188  63.079  1.00  0.00     0.236 C 
ATOM     21  O   GLY B   2      14.184  96.267  63.667  1.00  0.00    -0.272 OA
BRANCH  20  22
ATOM     22  CA  GLY B   2      15.219  94.141  63.321  1.00  0.00     0.225 C 
BRANCH  22  23
ATOM     23  N   GLY B   2      14.663  92.836  63.631  1.00  0.00    -0.350 N 
ATOM     24  H   GLY B   2      15.058  92.032  63.236  1.00  0.23     0.163 HD
ATOM     25  C   LYS B   1      13.607  92.707  64.440  1.00  0.00     0.254 C 
ATOM     26  O   LYS B   1      13.069  93.678  64.983  1.00  0.00    -0.271 OA
BRANCH  25  27
ATOM     27  CA  LYS B   1      13.125  91.295  64.684  1.00  0.00     0.350 C 
BRANCH  27  28
ATOM     28  CB  LYS B   1      12.892  91.043  66.199  1.00  0.00     0.048 C 
BRANCH  28  29
ATOM     29  CG  LYS B   1      11.395  90.932  66.581  1.00  0.00     0.004 C 
BRANCH  29  30
ATOM     30  CD  LYS B   1      11.039  89.718  67.444  1.00  0.00     0.027 C 
BRANCH  30  31
ATOM     31  CE  LYS B   1       9.747  90.010  68.219  1.00  0.00     0.229 C 
BRANCH  31  32
ATOM     32  NZ  LYS B   1       8.741  88.983  67.899  1.00  0.00    -0.079 N 
ATOM     33  HZ1 LYS B   1       9.029  88.067  68.264  1.00  0.00     0.274 HD
ATOM     34  HZ2 LYS B   1       7.839  89.194  68.337  1.00  0.00     0.274 HD
ATOM     35  HZ3 LYS B   1       8.658  88.971  66.892  1.00  0.00     0.274 HD
ENDBRANCH  31  32
ENDBRANCH  30  31
ENDBRANCH  29  30
ENDBRANCH  28  29
ENDBRANCH  27  28
BRANCH  27  36
ATOM     36  N   LYS B   1      14.083  90.320  64.170  1.00  0.00     0.312 N 
ATOM     37  H   LYS B   1      15.076  90.668  64.346  1.00  0.00     0.359 HD
ENDBRANCH  27  36
ENDBRANCH  25  27
ENDBRANCH  22  23
ENDBRANCH  20  22
ENDBRANCH   6  18
ENDBRANCH   4   6
ENDBRANCH   1   2
BRANCH   1  38
ATOM     38  CB  GLU B   4       7.922  93.437  61.165  1.00  0.00     0.045 C 
BRANCH  38  39
ATOM     39  CG  GLU B   4       6.431  93.637  61.384  1.00  0.00     0.116 C 
BRANCH  39  40
ATOM     40  CD  GLU B   4       5.645  92.344  61.281  1.00  0.00     0.172 C 
ATOM     41  OE2 GLU B   4       6.153  91.389  60.658  1.00  0.00    -0.648 OA
ATOM     42  OE1 GLU B   4       4.521  92.288  61.822  1.00  0.00    -0.648 OA
ENDBRANCH  39  40
ENDBRANCH  38  39
ENDBRANCH   1  38
BRANCH   1  43
ATOM     43  C   GLU B   4       9.009  92.855  63.338  1.00  0.00     0.241 C 
ATOM     44  N   THR B   5       7.977  92.561  64.123  1.00  7.70    -0.344 N 
ATOM     45  H   THR B   5       7.139  93.058  64.013  1.00  0.23     0.163 HD
ATOM     46  O   GLU B   4      10.095  92.278  63.410  1.00  0.00    -0.271 OA
BRANCH  44  47
ATOM     47  CA  THR B   5       8.055  91.519  65.143  1.00  7.88     0.205 C 
BRANCH  47  48
ATOM     48  CB  THR B   5       7.422  92.005  66.448  1.00  4.05     0.146 C 
ATOM     49  CG2 THR B   5       6.677  93.314  66.299  1.00  3.72     0.042 C 
BRANCH  48  50
ATOM     50  OG1 THR B   5       6.508  91.046  66.948  1.00  7.31    -0.393 OA
ATOM     51  HG1 THR B   5       6.727  90.839  67.859  1.00  0.23     0.210 HD
ENDBRANCH  48  50
ENDBRANCH  47  48
BRANCH  47  52
ATOM     52  C   THR B   5       7.356  90.249  64.667  1.00  7.05     0.243 C 
ATOM     53  N   TRP B   6       6.339  90.415  63.829  1.00  0.00    -0.346 N 
ATOM     54  H   TRP B   6       6.086  91.323  63.558  1.00  0.23     0.163 HD
ATOM     55  O   THR B   5       7.730  89.142  65.054  1.00  6.06    -0.271 OA
BRANCH  53  56
ATOM     56  CA  TRP B   6       5.587  89.282  63.306  1.00  0.00     0.181 C 
BRANCH  56  57
ATOM     57  CB  TRP B   6       6.496  88.058  63.181  1.00  0.00     0.075 C 
BRANCH  57  58
ATOM     58  CG  TRP B   6       7.048  87.880  61.799  1.00  0.00    -0.028 A 
ATOM     59  CD2 TRP B   6       6.468  87.112  60.738  1.00  0.00    -0.002 A 
ATOM     60  CE2 TRP B   6       7.320  87.232  59.623  1.00  0.00     0.042 A 
ATOM     61  CE3 TRP B   6       5.313  86.334  60.623  1.00  0.00     0.014 A 
ATOM     62  CZ2 TRP B   6       7.050  86.604  58.411  1.00  0.00     0.030 A 
ATOM     63  NE1 TRP B   6       8.368  88.036  59.990  1.00  0.00    -0.365 N 
ATOM     64  CH2 TRP B   6       5.913  85.848  58.325  1.00  0.00     0.002 A 
ATOM     65  CZ3 TRP B   6       5.047  85.711  59.417  1.00  0.00     0.001 A 
ATOM     66  HE1 TRP B   6       9.117  88.294  59.414  1.00  0.23     0.165 HD
ATOM     67  CD1 TRP B   6       8.197  88.420  61.298  1.00  0.00     0.096 A 
ENDBRANCH  57  58
ENDBRANCH  56  57
BRANCH  56  68
ATOM     68  C   TRP B   6       4.393  88.961  64.199  1.00  0.00     0.241 C 
ATOM     69  N   VAL B   7       4.544  89.224  65.494  1.00  6.11    -0.344 N 
ATOM     70  H   VAL B   7       5.390  89.603  65.808  1.00  0.23     0.163 HD
ATOM     71  O   TRP B   6       3.362  88.482  63.726  1.00  0.00    -0.271 OA
BRANCH  69  72
ATOM     72  CA  VAL B   7       3.482  88.962  66.457  1.00  5.65     0.189 C 
BRANCH  72  73
ATOM     73  CB  VAL B   7       4.016  88.186  67.677  1.00  1.15     0.010 C 
ATOM     74  CG1 VAL B   7       3.207  86.915  67.897  1.00  4.96     0.012 C 
ATOM     75  CG2 VAL B   7       5.492  87.862  67.504  1.00  9.83     0.012 C 
ENDBRANCH  72  73
BRANCH  72  76
ATOM     76  C   VAL B   7       2.838  90.260  66.935  1.00  4.44     0.197 C 
ATOM     77  OXT VAL B   7       3.475  91.324  66.792  1.00  0.00    -0.646 OA
ATOM     78  O   VAL B   7       1.701  90.200  67.446  1.00  0.00    -0.646 OA
ENDBRANCH  72  76
ENDBRANCH  69  72
ENDBRANCH  56  68
ENDBRANCH  53  56
ENDBRANCH  47  52
ENDBRANCH  44  47
ENDBRANCH   1  43
TORSDOF 29
ENDMDL
