MODEL 1
REMARK VINA RESULT:      -8.6      0.000      0.000
REMARK  26 active torsions:
REMARK  status: ('A' for Active; 'I' for Inactive)
REMARK    1  A    between atoms: N_1  and  CA_2 
REMARK    2  A    between atoms: CA_2  and  CB_5 
REMARK    3  A    between atoms: CA_2  and  C_3 
REMARK       I    between atoms: C_3  and  N_13 
REMARK    4  A    between atoms: CB_5  and  CG_6 
REMARK    5  A    between atoms: CA_10  and  N_13 
REMARK    6  A    between atoms: CA_10  and  C_11 
REMARK       I    between atoms: C_11  and  N_28 
REMARK    7  A    between atoms: CA_15  and  CB_17 
REMARK    8  A    between atoms: CA_15  and  C_16 
REMARK    9  A    between atoms: CA_15  and  N_28 
REMARK       I    between atoms: C_16  and  N_37 
REMARK   10  A    between atoms: CB_17  and  CG_18 
REMARK   11  A    between atoms: CA_31  and  CB_33 
REMARK   12  A    between atoms: CA_31  and  N_37 
REMARK   13  A    between atoms: CA_31  and  C_32 
REMARK       I    between atoms: C_32  and  N_47 
REMARK   14  A    between atoms: CB_33  and  CG_34 
REMARK   15  A    between atoms: CG_34  and  CD_35 
REMARK   16  A    between atoms: CA_41  and  N_47 
REMARK   17  A    between atoms: CA_41  and  CB_43 
REMARK   18  A    between atoms: CA_41  and  C_42 
REMARK       I    between atoms: C_42  and  N_63 
REMARK   19  A    between atoms: CB_43  and  OG1_49 
REMARK   20  A    between atoms: CA_50  and  CB_52 
REMARK   21  A    between atoms: CA_50  and  N_63 
REMARK   22  A    between atoms: CA_50  and  C_51 
REMARK       I    between atoms: C_51  and  N_72 
REMARK   23  A    between atoms: CB_52  and  CG_53 
REMARK   24  A    between atoms: CA_66  and  CB_68 
REMARK   25  A    between atoms: CA_66  and  C_67 
REMARK   26  A    between atoms: CA_66  and  N_72 
ROOT
ATOM      1  CA  GLU B   4       6.610  92.002  62.323  1.00  0.00     0.177 C 
ENDROOT
BRANCH   1   2
ATOM      2  CB  GLU B   4       6.628  91.900  60.797  1.00  0.00     0.045 C 
BRANCH   2   3
ATOM      3  CG  GLU B   4       5.288  92.217  60.155  1.00  0.00     0.116 C 
BRANCH   3   4
ATOM      4  CD  GLU B   4       4.986  93.704  60.131  1.00  0.00     0.172 C 
ATOM      5  OE1 GLU B   4       4.163  94.155  60.954  1.00  0.00    -0.648 OA
ATOM      6  OE2 GLU B   4       5.574  94.415  59.290  1.00  0.00    -0.648 OA
ENDBRANCH   3   4
ENDBRANCH   2   3
ENDBRANCH   1   2
BRANCH   1   7
ATOM      7  N   GLU B   4       7.926  92.392  62.826  1.00  0.00    -0.346 N 
ATOM      8  H   GLU B   4       8.306  91.916  63.593  1.00  0.23     0.163 HD
ATOM      9  C   TRP B   3       8.615  93.382  62.265  1.00  0.00     0.241 C 
ATOM     10  O   TRP B   3       8.196  94.021  61.301  1.00  0.00    -0.271 OA
BRANCH   9  11
ATOM     11  CA  TRP B   3       9.975  93.700  62.879  1.00  0.00     0.181 C 
BRANCH  11  12
ATOM     12  CB  TRP B   3       9.824  93.948  64.387  1.00  0.00     0.075 C 
BRANCH  12  13
ATOM     13  CG  TRP B   3      10.094  92.740  65.235  1.00  0.00    -0.028 A 
ATOM     14  CD1 TRP B   3       9.169  91.958  65.865  1.00  0.00     0.096 A 
ATOM     15  NE1 TRP B   3       9.796  90.947  66.555  1.00  0.00    -0.365 N 
ATOM     16  CE2 TRP B   3      11.150  91.064  66.381  1.00  0.00     0.042 A 
ATOM     17  HE1 TRP B   3       9.346  90.255  67.084  1.00  0.23     0.165 HD
ATOM     18  CZ2 TRP B   3      12.190  90.282  66.878  1.00  0.00     0.030 A 
ATOM     19  CD2 TRP B   3      11.375  92.183  65.557  1.00  0.00    -0.002 A 
ATOM     20  CH2 TRP B   3      13.467  90.636  66.537  1.00  0.00     0.002 A 
ATOM     21  CZ3 TRP B   3      13.722  91.744  65.721  1.00  0.00     0.001 A 
ATOM     22  CE3 TRP B   3      12.692  92.521  65.227  1.00  0.00     0.014 A 
ENDBRANCH  12  13
ENDBRANCH  11  12
BRANCH  11  23
ATOM     23  N   TRP B   3      10.595  94.846  62.219  1.00  0.00    -0.346 N 
ATOM     24  C   GLY B   2      11.916  95.008  62.197  1.00  0.00     0.236 C 
ATOM     25  O   GLY B   2      12.696  94.217  62.724  1.00  0.00    -0.272 OA
ATOM     26  H   TRP B   3      10.024  95.510  61.777  1.00  0.23     0.163 HD
BRANCH  24  27
ATOM     27  CA  GLY B   2      12.431  96.237  61.474  1.00  0.00     0.225 C 
BRANCH  27  28
ATOM     28  N   GLY B   2      11.379  96.954  60.775  1.00  0.00    -0.350 N 
ATOM     29  H   GLY B   2      10.450  96.655  60.854  1.00  0.23     0.163 HD
ATOM     30  C   ASP B   1      11.652  98.016  60.007  1.00  0.00     0.254 C 
ATOM     31  O   ASP B   1      12.801  98.454  59.877  1.00  0.00    -0.271 OA
BRANCH  30  32
ATOM     32  CA  ASP B   1      10.465  98.667  59.339  1.00  0.00     0.359 C 
BRANCH  32  33
ATOM     33  CB  ASP B   1      10.904  99.473  58.086  1.00  0.00     0.161 C 
BRANCH  33  34
ATOM     34  CG  ASP B   1      10.479  98.879  56.736  1.00  0.00     0.175 C 
ATOM     35  OD1 ASP B   1      10.970  99.342  55.686  1.00  0.00    -0.648 OA
ATOM     36  OD2 ASP B   1       9.617  97.976  56.725  1.00  0.00    -0.648 OA
ENDBRANCH  33  34
ENDBRANCH  32  33
BRANCH  32  37
ATOM     37  N   ASP B   1       9.745  99.526  60.275  1.00  0.00     0.312 N 
ATOM     38  H   ASP B   1      10.426  99.932  60.982  1.00  0.00     0.359 HD
ENDBRANCH  32  37
ENDBRANCH  30  32
ENDBRANCH  27  28
ENDBRANCH  24  27
ENDBRANCH  11  23
ENDBRANCH   9  11
ENDBRANCH   1   7
BRANCH   1  39
ATOM     39  C   GLU B   4       6.173  90.669  62.923  1.00  0.00     0.241 C 
ATOM     40  N   THR B   5       4.929  90.617  63.390  1.00  7.70    -0.344 N 
ATOM     41  H   THR B   5       4.365  91.416  63.329  1.00  0.23     0.163 HD
ATOM     42  O   GLU B   4       6.945  89.710  62.958  1.00  0.00    -0.271 OA
BRANCH  40  43
ATOM     43  CA  THR B   5       4.378  89.403  63.986  1.00  7.88     0.205 C 
BRANCH  43  44
ATOM     44  CB  THR B   5       3.758  89.717  65.349  1.00  4.05     0.146 C 
ATOM     45  CG2 THR B   5       4.785  90.011  66.420  1.00  3.72     0.042 C 
BRANCH  44  46
ATOM     46  OG1 THR B   5       2.897  90.839  65.261  1.00  7.31    -0.393 OA
ATOM     47  HG1 THR B   5       2.270  90.819  65.987  1.00  0.23     0.210 HD
ENDBRANCH  44  46
ENDBRANCH  43  44
BRANCH  43  48
ATOM     48  C   THR B   5       3.332  88.780  63.069  1.00  7.05     0.243 C 
ATOM     49  N   TRP B   6       3.498  87.496  62.773  1.00  0.00    -0.346 N 
ATOM     50  H   TRP B   6       4.265  87.014  63.148  1.00  0.23     0.163 HD
ATOM     51  O   THR B   5       2.395  89.450  62.636  1.00  6.06    -0.271 OA
BRANCH  49  52
ATOM     52  CA  TRP B   6       2.569  86.786  61.904  1.00  0.00     0.181 C 
BRANCH  52  53
ATOM     53  CB  TRP B   6       3.308  86.223  60.689  1.00  0.00     0.075 C 
BRANCH  53  54
ATOM     54  CG  TRP B   6       4.010  87.279  59.892  1.00  0.00    -0.028 A 
ATOM     55  CD2 TRP B   6       5.424  87.507  59.828  1.00  0.00    -0.002 A 
ATOM     56  CE2 TRP B   6       5.632  88.592  58.956  1.00  0.00     0.042 A 
ATOM     57  CE3 TRP B   6       6.531  86.899  60.425  1.00  0.00     0.014 A 
ATOM     58  CZ2 TRP B   6       6.903  89.080  58.666  1.00  0.00     0.030 A 
ATOM     59  NE1 TRP B   6       4.403  89.004  58.510  1.00  0.00    -0.365 N 
ATOM     60  CH2 TRP B   6       7.971  88.467  59.264  1.00  0.00     0.002 A 
ATOM     61  CZ3 TRP B   6       7.794  87.386  60.136  1.00  0.00     0.001 A 
ATOM     62  HE1 TRP B   6       4.241  89.745  57.888  1.00  0.23     0.165 HD
ATOM     63  CD1 TRP B   6       3.435  88.211  59.077  1.00  0.00     0.096 A 
ENDBRANCH  53  54
ENDBRANCH  52  53
BRANCH  52  64
ATOM     64  C   TRP B   6       1.867  85.662  62.659  1.00  0.00     0.241 C 
ATOM     65  O   TRP B   6       0.637  85.601  62.699  1.00  0.00    -0.271 OA
ATOM     66  N   VAL B   7       2.657  84.772  63.251  1.00  6.11    -0.344 N 
ATOM     67  H   VAL B   7       3.629  84.875  63.180  1.00  0.23     0.163 HD
BRANCH  66  68
ATOM     68  CA  VAL B   7       2.116  83.647  64.002  1.00  5.65     0.189 C 
BRANCH  68  69
ATOM     69  CB  VAL B   7       2.954  82.373  63.779  1.00  1.15     0.010 C 
ATOM     70  CG1 VAL B   7       2.099  81.273  63.165  1.00  4.96     0.012 C 
ATOM     71  CG2 VAL B   7       4.161  82.670  62.902  1.00  9.83     0.012 C 
ENDBRANCH  68  69
BRANCH  68  72
ATOM     72  C   VAL B   7       2.065  83.955  65.496  1.00  4.44     0.197 C 
ATOM     73  OXT VAL B   7       1.794  83.025  66.283  1.00  0.00    -0.646 OA
ATOM     74  O   VAL B   7       2.300  85.125  65.865  1.00  0.00    -0.646 OA
ENDBRANCH  68  72
ENDBRANCH  66  68
ENDBRANCH  52  64
ENDBRANCH  49  52
ENDBRANCH  43  48
ENDBRANCH  40  43
ENDBRANCH   1  39
TORSDOF 26
ENDMDL
MODEL 2
REMARK VINA RESULT:      -8.5      2.928      5.709
REMARK  26 active torsions:
REMARK  status: ('A' for Active; 'I' for Inactive)
REMARK    1  A    between atoms: N_1  and  CA_2 
REMARK    2  A    between atoms: CA_2  and  CB_5 
REMARK    3  A    between atoms: CA_2  and  C_3 
REMARK       I    between atoms: C_3  and  N_13 
REMARK    4  A    between atoms: CB_5  and  CG_6 
REMARK    5  A    between atoms: CA_10  and  N_13 
REMARK    6  A    between atoms: CA_10  and  C_11 
REMARK       I    between atoms: C_11  and  N_28 
REMARK    7  A    between atoms: CA_15  and  CB_17 
REMARK    8  A    between atoms: CA_15  and  C_16 
REMARK    9  A    between atoms: CA_15  and  N_28 
REMARK       I    between atoms: C_16  and  N_37 
REMARK   10  A    between atoms: CB_17  and  CG_18 
REMARK   11  A    between atoms: CA_31  and  CB_33 
REMARK   12  A    between atoms: CA_31  and  N_37 
REMARK   13  A    between atoms: CA_31  and  C_32 
REMARK       I    between atoms: C_32  and  N_47 
REMARK   14  A    between atoms: CB_33  and  CG_34 
REMARK   15  A    between atoms: CG_34  and  CD_35 
REMARK   16  A    between atoms: CA_41  and  N_47 
REMARK   17  A    between atoms: CA_41  and  CB_43 
REMARK   18  A    between atoms: CA_41  and  C_42 
REMARK       I    between atoms: C_42  and  N_63 
REMARK   19  A    between atoms: CB_43  and  OG1_49 
REMARK   20  A    between atoms: CA_50  and  CB_52 
REMARK   21  A    between atoms: CA_50  and  N_63 
REMARK   22  A    between atoms: CA_50  and  C_51 
REMARK       I    between atoms: C_51  and  N_72 
REMARK   23  A    between atoms: CB_52  and  CG_53 
REMARK   24  A    between atoms: CA_66  and  CB_68 
REMARK   25  A    between atoms: CA_66  and  C_67 
REMARK   26  A    between atoms: CA_66  and  N_72 
ROOT
ATOM      1  CA  GLU B   4       6.902  91.507  62.004  1.00  0.00     0.177 C 
ENDROOT
BRANCH   1   2
ATOM      2  CB  GLU B   4       7.115  90.069  61.530  1.00  0.00     0.045 C 
BRANCH   2   3
ATOM      3  CG  GLU B   4       6.724  89.848  60.078  1.00  0.00     0.116 C 
BRANCH   3   4
ATOM      4  CD  GLU B   4       5.596  88.846  59.920  1.00  0.00     0.172 C 
ATOM      5  OE1 GLU B   4       4.453  89.176  60.297  1.00  0.00    -0.648 OA
ATOM      6  OE2 GLU B   4       5.858  87.732  59.421  1.00  0.00    -0.648 OA
ENDBRANCH   3   4
ENDBRANCH   2   3
ENDBRANCH   1   2
BRANCH   1   7
ATOM      7  N   GLU B   4       8.129  92.040  62.594  1.00  0.00    -0.346 N 
ATOM      8  H   GLU B   4       8.586  91.527  63.292  1.00  0.23     0.163 HD
ATOM      9  C   TRP B   3       8.634  93.207  62.203  1.00  0.00     0.241 C 
ATOM     10  O   TRP B   3       8.110  93.900  61.333  1.00  0.00    -0.271 OA
BRANCH   9  11
ATOM     11  CA  TRP B   3       9.917  93.659  62.893  1.00  0.00     0.181 C 
BRANCH  11  12
ATOM     12  CB  TRP B   3       9.660  93.871  64.392  1.00  0.00     0.075 C 
BRANCH  12  13
ATOM     13  CG  TRP B   3       9.979  92.675  65.241  1.00  0.00    -0.028 A 
ATOM     14  CD1 TRP B   3       9.087  91.870  65.890  1.00  0.00     0.096 A 
ATOM     15  NE1 TRP B   3       9.754  90.881  66.574  1.00  0.00    -0.365 N 
ATOM     16  CE2 TRP B   3      11.101  91.036  66.377  1.00  0.00     0.042 A 
ATOM     17  HE1 TRP B   3       9.332  90.180  67.114  1.00  0.23     0.165 HD
ATOM     18  CZ2 TRP B   3      12.171  90.286  66.860  1.00  0.00     0.030 A 
ATOM     19  CD2 TRP B   3      11.280  92.156  65.544  1.00  0.00    -0.002 A 
ATOM     20  CH2 TRP B   3      13.431  90.674  66.497  1.00  0.00     0.002 A 
ATOM     21  CZ3 TRP B   3      13.641  91.785  65.671  1.00  0.00     0.001 A 
ATOM     22  CE3 TRP B   3      12.581  92.530  65.191  1.00  0.00     0.014 A 
ENDBRANCH  12  13
ENDBRANCH  11  12
BRANCH  11  23
ATOM     23  N   TRP B   3      10.446  94.873  62.276  1.00  0.00    -0.346 N 
ATOM     24  C   GLY B   2      11.753  95.117  62.226  1.00  0.00     0.236 C 
ATOM     25  O   GLY B   2      12.596  94.352  62.689  1.00  0.00    -0.272 OA
ATOM     26  H   TRP B   3       9.822  95.520  61.883  1.00  0.23     0.163 HD
BRANCH  24  27
ATOM     27  CA  GLY B   2      12.170  96.411  61.553  1.00  0.00     0.225 C 
BRANCH  27  28
ATOM     28  N   GLY B   2      11.353  96.725  60.394  1.00  0.00    -0.350 N 
ATOM     29  H   GLY B   2      10.590  96.154  60.167  1.00  0.23     0.163 HD
ATOM     30  C   ASP B   1      11.629  97.775  59.611  1.00  0.00     0.254 C 
ATOM     31  O   ASP B   1      12.569  98.542  59.850  1.00  0.00    -0.271 OA
BRANCH  30  32
ATOM     32  CA  ASP B   1      10.698  97.986  58.441  1.00  0.00     0.359 C 
BRANCH  32  33
ATOM     33  CB  ASP B   1      10.332  99.488  58.285  1.00  0.00     0.161 C 
BRANCH  33  34
ATOM     34  CG  ASP B   1      10.884 100.175  57.028  1.00  0.00     0.175 C 
ATOM     35  OD1 ASP B   1      10.780 101.414  56.916  1.00  0.00    -0.648 OA
ATOM     36  OD2 ASP B   1      11.383  99.466  56.129  1.00  0.00    -0.648 OA
ENDBRANCH  33  34
ENDBRANCH  32  33
BRANCH  32  37
ATOM     37  N   ASP B   1       9.492  97.176  58.580  1.00  0.00     0.312 N 
ATOM     38  H   ASP B   1       9.656  96.414  59.302  1.00  0.00     0.359 HD
ENDBRANCH  32  37
ENDBRANCH  30  32
ENDBRANCH  27  28
ENDBRANCH  24  27
ENDBRANCH  11  23
ENDBRANCH   9  11
ENDBRANCH   1   7
BRANCH   1  39
ATOM     39  C   GLU B   4       5.753  91.554  63.007  1.00  0.00     0.241 C 
ATOM     40  N   THR B   5       5.053  90.432  63.149  1.00  7.70    -0.344 N 
ATOM     41  H   THR B   5       5.301  89.647  62.616  1.00  0.23     0.163 HD
ATOM     42  O   GLU B   4       5.509  92.582  63.639  1.00  0.00    -0.271 OA
BRANCH  40  43
ATOM     43  CA  THR B   5       3.930  90.334  64.076  1.00  7.88     0.205 C 
BRANCH  43  44
ATOM     44  CB  THR B   5       2.791  89.529  63.447  1.00  4.05     0.146 C 
ATOM     45  CG2 THR B   5       1.488  89.644  64.207  1.00  3.72     0.042 C 
BRANCH  44  46
ATOM     46  OG1 THR B   5       2.551  89.956  62.118  1.00  7.31    -0.393 OA
ATOM     47  HG1 THR B   5       1.943  89.349  61.691  1.00  0.23     0.210 HD
ENDBRANCH  44  46
ENDBRANCH  43  44
BRANCH  43  48
ATOM     48  C   THR B   5       4.367  89.682  65.384  1.00  7.05     0.243 C 
ATOM     49  N   TRP B   6       4.434  90.478  66.445  1.00  0.00    -0.346 N 
ATOM     50  H   TRP B   6       4.206  91.426  66.347  1.00  0.23     0.163 HD
ATOM     51  O   THR B   5       4.641  88.483  65.429  1.00  6.06    -0.271 OA
BRANCH  49  52
ATOM     52  CA  TRP B   6       4.843  89.977  67.751  1.00  0.00     0.181 C 
BRANCH  52  53
ATOM     53  CB  TRP B   6       6.111  90.694  68.218  1.00  0.00     0.075 C 
BRANCH  53  54
ATOM     54  CG  TRP B   6       7.079  89.779  68.904  1.00  0.00    -0.028 A 
ATOM     55  CD2 TRP B   6       7.727  88.635  68.335  1.00  0.00    -0.002 A 
ATOM     56  CE2 TRP B   6       8.552  88.084  69.334  1.00  0.00     0.042 A 
ATOM     57  CE3 TRP B   6       7.689  88.024  67.079  1.00  0.00     0.014 A 
ATOM     58  CZ2 TRP B   6       9.331  86.952  69.113  1.00  0.00     0.030 A 
ATOM     59  NE1 TRP B   6       8.411  88.857  70.457  1.00  0.00    -0.365 N 
ATOM     60  CH2 TRP B   6       9.275  86.373  67.875  1.00  0.00     0.002 A 
ATOM     61  CZ3 TRP B   6       8.465  86.899  66.862  1.00  0.00     0.001 A 
ATOM     62  HE1 TRP B   6       8.869  88.709  71.312  1.00  0.23     0.165 HD
ATOM     63  CD1 TRP B   6       7.525  89.872  70.190  1.00  0.00     0.096 A 
ENDBRANCH  53  54
ENDBRANCH  52  53
BRANCH  52  64
ATOM     64  C   TRP B   6       3.729  90.158  68.777  1.00  0.00     0.241 C 
ATOM     65  O   TRP B   6       3.908  89.870  69.960  1.00  0.00    -0.271 OA
ATOM     66  N   VAL B   7       2.580  90.640  68.313  1.00  6.11    -0.344 N 
ATOM     67  H   VAL B   7       2.501  90.852  67.360  1.00  0.23     0.163 HD
BRANCH  66  68
ATOM     68  CA  VAL B   7       1.435  90.864  69.187  1.00  5.65     0.189 C 
BRANCH  68  69
ATOM     69  CB  VAL B   7       0.508  91.958  68.621  1.00  1.15     0.010 C 
ATOM     70  CG1 VAL B   7       0.410  93.128  69.590  1.00  4.96     0.012 C 
ATOM     71  CG2 VAL B   7       0.997  92.426  67.259  1.00  9.83     0.012 C 
ENDBRANCH  68  69
BRANCH  68  72
ATOM     72  C   VAL B   7       0.632  89.582  69.382  1.00  4.44     0.197 C 
ATOM     73  OXT VAL B   7       0.350  88.901  68.375  1.00  0.00    -0.646 OA
ATOM     74  O   VAL B   7       0.293  89.270  70.542  1.00  0.00    -0.646 OA
ENDBRANCH  68  72
ENDBRANCH  66  68
ENDBRANCH  52  64
ENDBRANCH  49  52
ENDBRANCH  43  48
ENDBRANCH  40  43
ENDBRANCH   1  39
TORSDOF 26
ENDMDL
MODEL 3
REMARK VINA RESULT:      -8.2      3.261      6.622
REMARK  26 active torsions:
REMARK  status: ('A' for Active; 'I' for Inactive)
REMARK    1  A    between atoms: N_1  and  CA_2 
REMARK    2  A    between atoms: CA_2  and  CB_5 
REMARK    3  A    between atoms: CA_2  and  C_3 
REMARK       I    between atoms: C_3  and  N_13 
REMARK    4  A    between atoms: CB_5  and  CG_6 
REMARK    5  A    between atoms: CA_10  and  N_13 
REMARK    6  A    between atoms: CA_10  and  C_11 
REMARK       I    between atoms: C_11  and  N_28 
REMARK    7  A    between atoms: CA_15  and  CB_17 
REMARK    8  A    between atoms: CA_15  and  C_16 
REMARK    9  A    between atoms: CA_15  and  N_28 
REMARK       I    between atoms: C_16  and  N_37 
REMARK   10  A    between atoms: CB_17  and  CG_18 
REMARK   11  A    between atoms: CA_31  and  CB_33 
REMARK   12  A    between atoms: CA_31  and  N_37 
REMARK   13  A    between atoms: CA_31  and  C_32 
REMARK       I    between atoms: C_32  and  N_47 
REMARK   14  A    between atoms: CB_33  and  CG_34 
REMARK   15  A    between atoms: CG_34  and  CD_35 
REMARK   16  A    between atoms: CA_41  and  N_47 
REMARK   17  A    between atoms: CA_41  and  CB_43 
REMARK   18  A    between atoms: CA_41  and  C_42 
REMARK       I    between atoms: C_42  and  N_63 
REMARK   19  A    between atoms: CB_43  and  OG1_49 
REMARK   20  A    between atoms: CA_50  and  CB_52 
REMARK   21  A    between atoms: CA_50  and  N_63 
REMARK   22  A    between atoms: CA_50  and  C_51 
REMARK       I    between atoms: C_51  and  N_72 
REMARK   23  A    between atoms: CB_52  and  CG_53 
REMARK   24  A    between atoms: CA_66  and  CB_68 
REMARK   25  A    between atoms: CA_66  and  C_67 
REMARK   26  A    between atoms: CA_66  and  N_72 
ROOT
ATOM      1  CA  GLU B   4       7.135  91.172  64.093  1.00  0.00     0.177 C 
ENDROOT
BRANCH   1   2
ATOM      2  CB  GLU B   4       7.107  91.418  62.583  1.00  0.00     0.045 C 
BRANCH   2   3
ATOM      3  CG  GLU B   4       6.832  92.865  62.212  1.00  0.00     0.116 C 
BRANCH   3   4
ATOM      4  CD  GLU B   4       5.391  93.100  61.799  1.00  0.00     0.172 C 
ATOM      5  OE1 GLU B   4       5.137  94.078  61.065  1.00  0.00    -0.648 OA
ATOM      6  OE2 GLU B   4       4.519  92.307  62.210  1.00  0.00    -0.648 OA
ENDBRANCH   3   4
ENDBRANCH   2   3
ENDBRANCH   1   2
BRANCH   1   7
ATOM      7  N   GLU B   4       8.498  90.898  64.543  1.00  0.00    -0.346 N 
ATOM      8  H   GLU B   4       9.005  90.175  64.121  1.00  0.23     0.163 HD
ATOM      9  C   TRP B   3       9.061  91.610  65.516  1.00  0.00     0.241 C 
ATOM     10  O   TRP B   3       8.480  92.531  66.089  1.00  0.00    -0.271 OA
BRANCH   9  11
ATOM     11  CA  TRP B   3      10.487  91.229  65.901  1.00  0.00     0.181 C 
BRANCH  11  12
ATOM     12  CB  TRP B   3      11.391  91.258  64.660  1.00  0.00     0.075 C 
BRANCH  12  13
ATOM     13  CG  TRP B   3      12.044  92.586  64.410  1.00  0.00    -0.028 A 
ATOM     14  CD1 TRP B   3      11.566  93.814  64.771  1.00  0.00     0.096 A 
ATOM     15  NE1 TRP B   3      12.437  94.798  64.364  1.00  0.00    -0.365 N 
ATOM     16  CE2 TRP B   3      13.499  94.214  63.726  1.00  0.00     0.042 A 
ATOM     17  HE1 TRP B   3      12.315  95.759  64.509  1.00  0.23     0.165 HD
ATOM     18  CZ2 TRP B   3      14.626  94.792  63.144  1.00  0.00     0.030 A 
ATOM     19  CD2 TRP B   3      13.285  92.822  63.734  1.00  0.00    -0.002 A 
ATOM     20  CH2 TRP B   3      15.541  93.954  62.568  1.00  0.00     0.002 A 
ATOM     21  CZ3 TRP B   3      15.355  92.567  62.560  1.00  0.00     0.001 A 
ATOM     22  CE3 TRP B   3      14.238  91.992  63.136  1.00  0.00     0.014 A 
ENDBRANCH  12  13
ENDBRANCH  11  12
BRANCH  11  23
ATOM     23  N   TRP B   3      10.526  89.920  66.547  1.00  0.00    -0.346 N 
ATOM     24  C   GLY B   2      10.109  89.747  67.799  1.00  0.00     0.236 C 
ATOM     25  O   GLY B   2       9.669  90.663  68.491  1.00  0.00    -0.272 OA
ATOM     26  H   TRP B   3      10.862  89.148  66.044  1.00  0.23     0.163 HD
BRANCH  24  27
ATOM     27  CA  GLY B   2      10.198  88.337  68.349  1.00  0.00     0.225 C 
BRANCH  27  28
ATOM     28  N   GLY B   2       8.899  87.797  68.713  1.00  0.00    -0.350 N 
ATOM     29  H   GLY B   2       8.407  88.181  69.468  1.00  0.23     0.163 HD
ATOM     30  C   ASP B   1       8.360  86.770  68.046  1.00  0.00     0.254 C 
ATOM     31  O   ASP B   1       8.922  86.250  67.075  1.00  0.00    -0.271 OA
BRANCH  30  32
ATOM     32  CA  ASP B   1       7.005  86.311  68.529  1.00  0.00     0.359 C 
BRANCH  32  33
ATOM     33  CB  ASP B   1       6.246  87.467  69.236  1.00  0.00     0.161 C 
BRANCH  33  34
ATOM     34  CG  ASP B   1       5.641  88.527  68.305  1.00  0.00     0.175 C 
ATOM     35  OD1 ASP B   1       6.261  89.593  68.114  1.00  0.00    -0.648 OA
ATOM     36  OD2 ASP B   1       4.520  88.310  67.799  1.00  0.00    -0.648 OA
ENDBRANCH  33  34
ENDBRANCH  32  33
BRANCH  32  37
ATOM     37  N   ASP B   1       7.130  85.159  69.418  1.00  0.00     0.312 N 
ATOM     38  H   ASP B   1       8.146  84.852  69.461  1.00  0.00     0.359 HD
ENDBRANCH  32  37
ENDBRANCH  30  32
ENDBRANCH  27  28
ENDBRANCH  24  27
ENDBRANCH  11  23
ENDBRANCH   9  11
ENDBRANCH   1   7
BRANCH   1  39
ATOM     39  C   GLU B   4       6.204  90.015  64.443  1.00  0.00     0.241 C 
ATOM     40  N   THR B   5       4.903  90.240  64.280  1.00  7.70    -0.344 N 
ATOM     41  H   THR B   5       4.610  91.115  63.951  1.00  0.23     0.163 HD
ATOM     42  O   GLU B   4       6.655  88.944  64.849  1.00  0.00    -0.271 OA
BRANCH  40  43
ATOM     43  CA  THR B   5       3.901  89.220  64.573  1.00  7.88     0.205 C 
BRANCH  43  44
ATOM     44  CB  THR B   5       2.679  89.853  65.241  1.00  4.05     0.146 C 
ATOM     45  CG2 THR B   5       2.938  91.251  65.757  1.00  3.72     0.042 C 
BRANCH  44  46
ATOM     46  OG1 THR B   5       1.594  89.924  64.333  1.00  7.31    -0.393 OA
ATOM     47  HG1 THR B   5       1.819  89.455  63.527  1.00  0.23     0.210 HD
ENDBRANCH  44  46
ENDBRANCH  43  44
BRANCH  43  48
ATOM     48  C   THR B   5       3.481  88.497  63.297  1.00  7.05     0.243 C 
ATOM     49  N   TRP B   6       3.096  87.233  63.437  1.00  0.00    -0.346 N 
ATOM     50  H   TRP B   6       3.097  86.828  64.329  1.00  0.23     0.163 HD
ATOM     51  O   THR B   5       3.508  89.072  62.209  1.00  6.06    -0.271 OA
BRANCH  49  52
ATOM     52  CA  TRP B   6       2.675  86.432  62.294  1.00  0.00     0.181 C 
BRANCH  52  53
ATOM     53  CB  TRP B   6       3.836  85.571  61.796  1.00  0.00     0.075 C 
BRANCH  53  54
ATOM     54  CG  TRP B   6       4.489  86.125  60.567  1.00  0.00    -0.028 A 
ATOM     55  CD2 TRP B   6       5.699  86.890  60.510  1.00  0.00    -0.002 A 
ATOM     56  CE2 TRP B   6       5.939  87.191  59.156  1.00  0.00     0.042 A 
ATOM     57  CE3 TRP B   6       6.602  87.349  61.473  1.00  0.00     0.014 A 
ATOM     58  CZ2 TRP B   6       7.044  87.930  58.743  1.00  0.00     0.030 A 
ATOM     59  NE1 TRP B   6       4.922  86.635  58.424  1.00  0.00    -0.365 N 
ATOM     60  CH2 TRP B   6       7.912  88.368  59.706  1.00  0.00     0.002 A 
ATOM     61  CZ3 TRP B   6       7.699  88.083  61.060  1.00  0.00     0.001 A 
ATOM     62  HE1 TRP B   6       4.827  86.685  57.449  1.00  0.23     0.165 HD
ATOM     63  CD1 TRP B   6       4.055  85.997  59.279  1.00  0.00     0.096 A 
ENDBRANCH  53  54
ENDBRANCH  52  53
BRANCH  52  64
ATOM     64  C   TRP B   6       1.484  85.551  62.656  1.00  0.00     0.241 C 
ATOM     65  O   TRP B   6       0.332  85.922  62.428  1.00  0.00    -0.271 OA
ATOM     66  N   VAL B   7       1.772  84.380  63.216  1.00  6.11    -0.344 N 
ATOM     67  H   VAL B   7       2.709  84.143  63.369  1.00  0.23     0.163 HD
BRANCH  66  68
ATOM     68  CA  VAL B   7       0.728  83.441  63.607  1.00  5.65     0.189 C 
BRANCH  68  69
ATOM     69  CB  VAL B   7       0.872  82.104  62.855  1.00  1.15     0.010 C 
ATOM     70  CG1 VAL B   7       0.408  82.250  61.413  1.00  4.96     0.012 C 
ATOM     71  CG2 VAL B   7       2.308  81.606  62.912  1.00  9.83     0.012 C 
ENDBRANCH  68  69
BRANCH  68  72
ATOM     72  C   VAL B   7       0.761  83.174  65.109  1.00  4.44     0.197 C 
ATOM     73  OXT VAL B   7       1.608  83.778  65.799  1.00  0.00    -0.646 OA
ATOM     74  O   VAL B   7      -0.062  82.364  65.582  1.00  0.00    -0.646 OA
ENDBRANCH  68  72
ENDBRANCH  66  68
ENDBRANCH  52  64
ENDBRANCH  49  52
ENDBRANCH  43  48
ENDBRANCH  40  43
ENDBRANCH   1  39
TORSDOF 26
ENDMDL
MODEL 4
REMARK VINA RESULT:      -8.0      3.835      6.013
REMARK  26 active torsions:
REMARK  status: ('A' for Active; 'I' for Inactive)
REMARK    1  A    between atoms: N_1  and  CA_2 
REMARK    2  A    between atoms: CA_2  and  CB_5 
REMARK    3  A    between atoms: CA_2  and  C_3 
REMARK       I    between atoms: C_3  and  N_13 
REMARK    4  A    between atoms: CB_5  and  CG_6 
REMARK    5  A    between atoms: CA_10  and  N_13 
REMARK    6  A    between atoms: CA_10  and  C_11 
REMARK       I    between atoms: C_11  and  N_28 
REMARK    7  A    between atoms: CA_15  and  CB_17 
REMARK    8  A    between atoms: CA_15  and  C_16 
REMARK    9  A    between atoms: CA_15  and  N_28 
REMARK       I    between atoms: C_16  and  N_37 
REMARK   10  A    between atoms: CB_17  and  CG_18 
REMARK   11  A    between atoms: CA_31  and  CB_33 
REMARK   12  A    between atoms: CA_31  and  N_37 
REMARK   13  A    between atoms: CA_31  and  C_32 
REMARK       I    between atoms: C_32  and  N_47 
REMARK   14  A    between atoms: CB_33  and  CG_34 
REMARK   15  A    between atoms: CG_34  and  CD_35 
REMARK   16  A    between atoms: CA_41  and  N_47 
REMARK   17  A    between atoms: CA_41  and  CB_43 
REMARK   18  A    between atoms: CA_41  and  C_42 
REMARK       I    between atoms: C_42  and  N_63 
REMARK   19  A    between atoms: CB_43  and  OG1_49 
REMARK   20  A    between atoms: CA_50  and  CB_52 
REMARK   21  A    between atoms: CA_50  and  N_63 
REMARK   22  A    between atoms: CA_50  and  C_51 
REMARK       I    between atoms: C_51  and  N_72 
REMARK   23  A    between atoms: CB_52  and  CG_53 
REMARK   24  A    between atoms: CA_66  and  CB_68 
REMARK   25  A    between atoms: CA_66  and  C_67 
REMARK   26  A    between atoms: CA_66  and  N_72 
ROOT
ATOM      1  CA  GLU B   4       6.876  91.189  67.142  1.00  0.00     0.177 C 
ENDROOT
BRANCH   1   2
ATOM      2  CB  GLU B   4       6.318  92.589  66.884  1.00  0.00     0.045 C 
BRANCH   2   3
ATOM      3  CG  GLU B   4       6.572  93.090  65.472  1.00  0.00     0.116 C 
BRANCH   3   4
ATOM      4  CD  GLU B   4       5.371  92.915  64.563  1.00  0.00     0.172 C 
ATOM      5  OE1 GLU B   4       4.242  92.808  65.086  1.00  0.00    -0.648 OA
ATOM      6  OE2 GLU B   4       5.559  92.885  63.329  1.00  0.00    -0.648 OA
ENDBRANCH   3   4
ENDBRANCH   2   3
ENDBRANCH   1   2
BRANCH   1   7
ATOM      7  N   GLU B   4       7.881  90.844  66.139  1.00  0.00    -0.346 N 
ATOM      8  H   GLU B   4       7.602  90.699  65.211  1.00  0.23     0.163 HD
ATOM      9  C   TRP B   3       9.166  90.721  66.461  1.00  0.00     0.241 C 
ATOM     10  O   TRP B   3       9.583  90.888  67.606  1.00  0.00    -0.271 OA
BRANCH   9  11
ATOM     11  CA  TRP B   3      10.121  90.355  65.329  1.00  0.00     0.181 C 
BRANCH  11  12
ATOM     12  CB  TRP B   3      10.399  91.590  64.458  1.00  0.00     0.075 C 
BRANCH  12  13
ATOM     13  CG  TRP B   3      11.829  91.720  64.022  1.00  0.00    -0.028 A 
ATOM     14  CD1 TRP B   3      12.716  90.704  63.809  1.00  0.00     0.096 A 
ATOM     15  NE1 TRP B   3      13.935  91.214  63.425  1.00  0.00    -0.365 N 
ATOM     16  CE2 TRP B   3      13.852  92.581  63.386  1.00  0.00     0.042 A 
ATOM     17  HE1 TRP B   3      14.731  90.683  63.213  1.00  0.23     0.165 HD
ATOM     18  CZ2 TRP B   3      14.817  93.529  63.057  1.00  0.00     0.030 A 
ATOM     19  CD2 TRP B   3      12.540  92.935  63.758  1.00  0.00    -0.002 A 
ATOM     20  CH2 TRP B   3      14.451  94.847  63.104  1.00  0.00     0.002 A 
ATOM     21  CZ3 TRP B   3      13.156  95.231  63.471  1.00  0.00     0.001 A 
ATOM     22  CE3 TRP B   3      12.197  94.291  63.798  1.00  0.00     0.014 A 
ENDBRANCH  12  13
ENDBRANCH  11  12
BRANCH  11  23
ATOM     23  N   TRP B   3       9.589  89.257  64.526  1.00  0.00    -0.346 N 
ATOM     24  C   GLY B   2       8.684  89.463  63.574  1.00  0.00     0.236 C 
ATOM     25  O   GLY B   2       8.235  90.576  63.305  1.00  0.00    -0.272 OA
ATOM     26  H   TRP B   3       9.912  88.345  64.691  1.00  0.23     0.163 HD
BRANCH  24  27
ATOM     27  CA  GLY B   2       8.218  88.238  62.811  1.00  0.00     0.225 C 
BRANCH  27  28
ATOM     28  N   GLY B   2       7.831  88.545  61.446  1.00  0.00    -0.350 N 
ATOM     29  H   GLY B   2       8.227  89.315  60.989  1.00  0.23     0.163 HD
ATOM     30  C   ASP B   1       6.927  87.803  60.794  1.00  0.00     0.254 C 
ATOM     31  O   ASP B   1       6.401  86.809  61.309  1.00  0.00    -0.271 OA
BRANCH  30  32
ATOM     32  CA  ASP B   1       6.618  88.233  59.381  1.00  0.00     0.359 C 
BRANCH  32  33
ATOM     33  CB  ASP B   1       7.308  87.296  58.351  1.00  0.00     0.161 C 
BRANCH  33  34
ATOM     34  CG  ASP B   1       6.454  86.123  57.849  1.00  0.00     0.175 C 
ATOM     35  OD1 ASP B   1       5.370  85.873  58.416  1.00  0.00    -0.648 OA
ATOM     36  OD2 ASP B   1       6.891  85.422  56.912  1.00  0.00    -0.648 OA
ENDBRANCH  33  34
ENDBRANCH  32  33
BRANCH  32  37
ATOM     37  N   ASP B   1       7.015  89.620  59.158  1.00  0.00     0.312 N 
ATOM     38  H   ASP B   1       6.372  90.266  59.705  1.00  0.00     0.359 HD
ENDBRANCH  32  37
ENDBRANCH  30  32
ENDBRANCH  27  28
ENDBRANCH  24  27
ENDBRANCH  11  23
ENDBRANCH   9  11
ENDBRANCH   1   7
BRANCH   1  39
ATOM     39  C   GLU B   4       5.737  90.173  67.141  1.00  0.00     0.241 C 
ATOM     40  N   THR B   5       4.515  90.663  67.330  1.00  7.70    -0.344 N 
ATOM     41  H   THR B   5       4.405  91.629  67.460  1.00  0.23     0.163 HD
ATOM     42  O   GLU B   4       5.961  88.975  66.968  1.00  0.00    -0.271 OA
BRANCH  40  43
ATOM     43  CA  THR B   5       3.334  89.806  67.349  1.00  7.88     0.205 C 
BRANCH  43  44
ATOM     44  CB  THR B   5       2.303  90.343  68.344  1.00  4.05     0.146 C 
ATOM     45  CG2 THR B   5       2.787  90.317  69.777  1.00  3.72     0.042 C 
BRANCH  44  46
ATOM     46  OG1 THR B   5       1.957  91.681  68.032  1.00  7.31    -0.393 OA
ATOM     47  HG1 THR B   5       1.624  91.724  67.133  1.00  0.23     0.210 HD
ENDBRANCH  44  46
ENDBRANCH  43  44
BRANCH  43  48
ATOM     48  C   THR B   5       2.715  89.713  65.958  1.00  7.05     0.243 C 
ATOM     49  N   TRP B   6       3.243  88.811  65.138  1.00  0.00    -0.346 N 
ATOM     50  H   TRP B   6       3.987  88.257  65.452  1.00  0.23     0.163 HD
ATOM     51  O   THR B   5       1.780  90.446  65.634  1.00  6.06    -0.271 OA
BRANCH  49  52
ATOM     52  CA  TRP B   6       2.743  88.628  63.781  1.00  0.00     0.181 C 
BRANCH  52  53
ATOM     53  CB  TRP B   6       3.911  88.511  62.800  1.00  0.00     0.075 C 
BRANCH  53  54
ATOM     54  CG  TRP B   6       3.650  89.201  61.497  1.00  0.00    -0.028 A 
ATOM     55  CD2 TRP B   6       2.926  88.673  60.378  1.00  0.00    -0.002 A 
ATOM     56  CE2 TRP B   6       2.924  89.665  59.379  1.00  0.00     0.042 A 
ATOM     57  CE3 TRP B   6       2.282  87.459  60.125  1.00  0.00     0.014 A 
ATOM     58  CZ2 TRP B   6       2.300  89.478  58.148  1.00  0.00     0.030 A 
ATOM     59  NE1 TRP B   6       3.613  90.744  59.867  1.00  0.00    -0.365 N 
ATOM     60  CH2 TRP B   6       1.677  88.280  57.926  1.00  0.00     0.002 A 
ATOM     61  CZ3 TRP B   6       1.663  87.276  58.902  1.00  0.00     0.001 A 
ATOM     62  HE1 TRP B   6       3.772  91.584  59.387  1.00  0.23     0.165 HD
ATOM     63  CD1 TRP B   6       4.046  90.457  61.139  1.00  0.00     0.096 A 
ENDBRANCH  53  54
ENDBRANCH  52  53
BRANCH  52  64
ATOM     64  C   TRP B   6       1.854  87.392  63.690  1.00  0.00     0.241 C 
ATOM     65  O   TRP B   6       0.627  87.493  63.729  1.00  0.00    -0.271 OA
ATOM     66  N   VAL B   7       2.483  86.227  63.565  1.00  6.11    -0.344 N 
ATOM     67  H   VAL B   7       3.462  86.214  63.538  1.00  0.23     0.163 HD
BRANCH  66  68
ATOM     68  CA  VAL B   7       1.753  84.970  63.464  1.00  5.65     0.189 C 
BRANCH  68  69
ATOM     69  CB  VAL B   7       2.359  84.060  62.377  1.00  1.15     0.010 C 
ATOM     70  CG1 VAL B   7       1.404  83.926  61.199  1.00  4.96     0.012 C 
ATOM     71  CG2 VAL B   7       3.708  84.593  61.919  1.00  9.83     0.012 C 
ENDBRANCH  68  69
BRANCH  68  72
ATOM     72  C   VAL B   7       1.753  84.224  64.795  1.00  4.44     0.197 C 
ATOM     73  OXT VAL B   7       0.953  84.592  65.679  1.00  0.00    -0.646 OA
ATOM     74  O   VAL B   7       2.554  83.277  64.940  1.00  0.00    -0.646 OA
ENDBRANCH  68  72
ENDBRANCH  66  68
ENDBRANCH  52  64
ENDBRANCH  49  52
ENDBRANCH  43  48
ENDBRANCH  40  43
ENDBRANCH   1  39
TORSDOF 26
ENDMDL
MODEL 5
REMARK VINA RESULT:      -7.2      3.545      9.487
REMARK  26 active torsions:
REMARK  status: ('A' for Active; 'I' for Inactive)
REMARK    1  A    between atoms: N_1  and  CA_2 
REMARK    2  A    between atoms: CA_2  and  CB_5 
REMARK    3  A    between atoms: CA_2  and  C_3 
REMARK       I    between atoms: C_3  and  N_13 
REMARK    4  A    between atoms: CB_5  and  CG_6 
REMARK    5  A    between atoms: CA_10  and  N_13 
REMARK    6  A    between atoms: CA_10  and  C_11 
REMARK       I    between atoms: C_11  and  N_28 
REMARK    7  A    between atoms: CA_15  and  CB_17 
REMARK    8  A    between atoms: CA_15  and  C_16 
REMARK    9  A    between atoms: CA_15  and  N_28 
REMARK       I    between atoms: C_16  and  N_37 
REMARK   10  A    between atoms: CB_17  and  CG_18 
REMARK   11  A    between atoms: CA_31  and  CB_33 
REMARK   12  A    between atoms: CA_31  and  N_37 
REMARK   13  A    between atoms: CA_31  and  C_32 
REMARK       I    between atoms: C_32  and  N_47 
REMARK   14  A    between atoms: CB_33  and  CG_34 
REMARK   15  A    between atoms: CG_34  and  CD_35 
REMARK   16  A    between atoms: CA_41  and  N_47 
REMARK   17  A    between atoms: CA_41  and  CB_43 
REMARK   18  A    between atoms: CA_41  and  C_42 
REMARK       I    between atoms: C_42  and  N_63 
REMARK   19  A    between atoms: CB_43  and  OG1_49 
REMARK   20  A    between atoms: CA_50  and  CB_52 
REMARK   21  A    between atoms: CA_50  and  N_63 
REMARK   22  A    between atoms: CA_50  and  C_51 
REMARK       I    between atoms: C_51  and  N_72 
REMARK   23  A    between atoms: CB_52  and  CG_53 
REMARK   24  A    between atoms: CA_66  and  CB_68 
REMARK   25  A    between atoms: CA_66  and  C_67 
REMARK   26  A    between atoms: CA_66  and  N_72 
ROOT
ATOM      1  CA  GLU B   4       9.162  92.844  63.105  1.00  0.00     0.177 C 
ENDROOT
BRANCH   1   2
ATOM      2  CB  GLU B   4       9.401  94.327  63.394  1.00  0.00     0.045 C 
BRANCH   2   3
ATOM      3  CG  GLU B   4      10.786  94.619  63.947  1.00  0.00     0.116 C 
BRANCH   3   4
ATOM      4  CD  GLU B   4      11.822  94.823  62.858  1.00  0.00     0.172 C 
ATOM      5  OE1 GLU B   4      12.878  94.159  62.911  1.00  0.00    -0.648 OA
ATOM      6  OE2 GLU B   4      11.576  95.648  61.953  1.00  0.00    -0.648 OA
ENDBRANCH   3   4
ENDBRANCH   2   3
ENDBRANCH   1   2
BRANCH   1   7
ATOM      7  N   GLU B   4       7.733  92.571  62.974  1.00  0.00    -0.346 N 
ATOM      8  H   GLU B   4       7.094  93.310  63.060  1.00  0.23     0.163 HD
ATOM      9  C   TRP B   3       7.281  91.341  62.744  1.00  0.00     0.241 C 
ATOM     10  O   TRP B   3       8.027  90.370  62.626  1.00  0.00    -0.271 OA
BRANCH   9  11
ATOM     11  CA  TRP B   3       5.768  91.180  62.629  1.00  0.00     0.181 C 
BRANCH  11  12
ATOM     12  CB  TRP B   3       5.334  89.848  63.256  1.00  0.00     0.075 C 
BRANCH  12  13
ATOM     13  CG  TRP B   3       4.730  88.881  62.280  1.00  0.00    -0.028 A 
ATOM     14  CD1 TRP B   3       3.401  88.700  62.022  1.00  0.00     0.096 A 
ATOM     15  NE1 TRP B   3       3.233  87.720  61.072  1.00  0.00    -0.365 N 
ATOM     16  CE2 TRP B   3       4.464  87.247  60.701  1.00  0.00     0.042 A 
ATOM     17  HE1 TRP B   3       2.372  87.413  60.719  1.00  0.23     0.165 HD
ATOM     18  CZ2 TRP B   3       4.805  86.261  59.778  1.00  0.00     0.030 A 
ATOM     19  CD2 TRP B   3       5.430  87.954  61.442  1.00  0.00    -0.002 A 
ATOM     20  CH2 TRP B   3       6.135  85.989  59.606  1.00  0.00     0.002 A 
ATOM     21  CZ3 TRP B   3       7.119  86.673  60.329  1.00  0.00     0.001 A 
ATOM     22  CE3 TRP B   3       6.781  87.652  61.245  1.00  0.00     0.014 A 
ENDBRANCH  12  13
ENDBRANCH  11  12
BRANCH  11  23
ATOM     23  N   TRP B   3       5.334  91.271  61.238  1.00  0.00    -0.346 N 
ATOM     24  C   GLY B   2       4.753  92.368  60.758  1.00  0.00     0.236 C 
ATOM     25  O   GLY B   2       4.542  93.368  61.442  1.00  0.00    -0.272 OA
ATOM     26  H   TRP B   3       5.480  90.507  60.641  1.00  0.23     0.163 HD
BRANCH  24  27
ATOM     27  CA  GLY B   2       4.354  92.334  59.296  1.00  0.00     0.225 C 
BRANCH  27  28
ATOM     28  N   GLY B   2       3.057  91.717  59.086  1.00  0.00    -0.350 N 
ATOM     29  H   GLY B   2       2.242  92.252  59.180  1.00  0.23     0.163 HD
ATOM     30  C   ASP B   1       2.944  90.419  58.777  1.00  0.00     0.254 C 
ATOM     31  O   ASP B   1       3.933  89.692  58.628  1.00  0.00    -0.271 OA
BRANCH  30  32
ATOM     32  CA  ASP B   1       1.536  89.908  58.585  1.00  0.00     0.359 C 
BRANCH  32  33
ATOM     33  CB  ASP B   1       1.438  89.008  57.323  1.00  0.00     0.161 C 
BRANCH  33  34
ATOM     34  CG  ASP B   1       1.185  87.518  57.592  1.00  0.00     0.175 C 
ATOM     35  OD1 ASP B   1       0.618  86.830  56.719  1.00  0.00    -0.648 OA
ATOM     36  OD2 ASP B   1       1.516  87.046  58.700  1.00  0.00    -0.648 OA
ENDBRANCH  33  34
ENDBRANCH  32  33
BRANCH  32  37
ATOM     37  N   ASP B   1       0.586  91.014  58.502  1.00  0.00     0.312 N 
ATOM     38  H   ASP B   1      -0.376  90.637  58.254  1.00  0.00     0.359 HD
ENDBRANCH  32  37
ENDBRANCH  30  32
ENDBRANCH  27  28
ENDBRANCH  24  27
ENDBRANCH  11  23
ENDBRANCH   9  11
ENDBRANCH   1   7
BRANCH   1  39
ATOM     39  C   GLU B   4       9.778  91.998  64.216  1.00  0.00     0.241 C 
ATOM     40  N   THR B   5      10.742  91.159  63.847  1.00  7.70    -0.344 N 
ATOM     41  H   THR B   5      11.005  91.122  62.904  1.00  0.23     0.163 HD
ATOM     42  O   GLU B   4       9.389  92.106  65.379  1.00  0.00    -0.271 OA
BRANCH  40  43
ATOM     43  CA  THR B   5      11.419  90.292  64.807  1.00  7.88     0.205 C 
BRANCH  43  44
ATOM     44  CB  THR B   5      12.130  91.131  65.870  1.00  4.05     0.146 C 
ATOM     45  CG2 THR B   5      13.322  90.432  66.485  1.00  3.72     0.042 C 
BRANCH  44  46
ATOM     46  OG1 THR B   5      12.587  92.354  65.320  1.00  7.31    -0.393 OA
ATOM     47  HG1 THR B   5      11.844  92.949  65.201  1.00  0.23     0.210 HD
ENDBRANCH  44  46
ENDBRANCH  43  44
BRANCH  43  48
ATOM     48  C   THR B   5      10.425  89.345  65.471  1.00  7.05     0.243 C 
ATOM     49  N   TRP B   6      10.114  89.610  66.734  1.00  0.00    -0.346 N 
ATOM     50  H   TRP B   6      10.523  90.383  67.176  1.00  0.23     0.163 HD
ATOM     51  O   THR B   5       9.954  88.391  64.851  1.00  6.06    -0.271 OA
BRANCH  49  52
ATOM     52  CA  TRP B   6       9.179  88.778  67.481  1.00  0.00     0.181 C 
BRANCH  52  53
ATOM     53  CB  TRP B   6       9.293  89.069  68.978  1.00  0.00     0.075 C 
BRANCH  53  54
ATOM     54  CG  TRP B   6       9.611  87.850  69.788  1.00  0.00    -0.028 A 
ATOM     55  CD2 TRP B   6       8.873  86.622  69.815  1.00  0.00    -0.002 A 
ATOM     56  CE2 TRP B   6       9.536  85.757  70.705  1.00  0.00     0.042 A 
ATOM     57  CE3 TRP B   6       7.716  86.173  69.172  1.00  0.00     0.014 A 
ATOM     58  CZ2 TRP B   6       9.079  84.468  70.967  1.00  0.00     0.030 A 
ATOM     59  NE1 TRP B   6      10.626  86.427  71.197  1.00  0.00    -0.365 N 
ATOM     60  CH2 TRP B   6       7.944  84.053  70.326  1.00  0.00     0.002 A 
ATOM     61  CZ3 TRP B   6       7.265  84.891  69.435  1.00  0.00     0.001 A 
ATOM     62  HE1 TRP B   6      11.273  86.069  71.841  1.00  0.23     0.165 HD
ATOM     63  CD1 TRP B   6      10.663  87.683  70.641  1.00  0.00     0.096 A 
ENDBRANCH  53  54
ENDBRANCH  52  53
BRANCH  52  64
ATOM     64  C   TRP B   6       7.747  89.006  67.008  1.00  0.00     0.241 C 
ATOM     65  O   TRP B   6       7.107  88.100  66.474  1.00  0.00    -0.271 OA
ATOM     66  N   VAL B   7       7.251  90.222  67.214  1.00  6.11    -0.344 N 
ATOM     67  H   VAL B   7       7.811  90.899  67.647  1.00  0.23     0.163 HD
BRANCH  66  68
ATOM     68  CA  VAL B   7       5.894  90.573  66.814  1.00  5.65     0.189 C 
BRANCH  68  69
ATOM     69  CB  VAL B   7       4.893  90.320  67.957  1.00  1.15     0.010 C 
ATOM     70  CG1 VAL B   7       3.846  89.299  67.534  1.00  4.96     0.012 C 
ATOM     71  CG2 VAL B   7       5.616  89.861  69.214  1.00  9.83     0.012 C 
ENDBRANCH  68  69
BRANCH  68  72
ATOM     72  C   VAL B   7       5.807  92.036  66.388  1.00  4.44     0.197 C 
ATOM     73  OXT VAL B   7       6.702  92.818  66.769  1.00  0.00    -0.646 OA
ATOM     74  O   VAL B   7       4.842  92.386  65.676  1.00  0.00    -0.646 OA
ENDBRANCH  68  72
ENDBRANCH  66  68
ENDBRANCH  52  64
ENDBRANCH  49  52
ENDBRANCH  43  48
ENDBRANCH  40  43
ENDBRANCH   1  39
TORSDOF 26
ENDMDL
MODEL 6
REMARK VINA RESULT:      -7.2      3.896      9.255
REMARK  26 active torsions:
REMARK  status: ('A' for Active; 'I' for Inactive)
REMARK    1  A    between atoms: N_1  and  CA_2 
REMARK    2  A    between atoms: CA_2  and  CB_5 
REMARK    3  A    between atoms: CA_2  and  C_3 
REMARK       I    between atoms: C_3  and  N_13 
REMARK    4  A    between atoms: CB_5  and  CG_6 
REMARK    5  A    between atoms: CA_10  and  N_13 
REMARK    6  A    between atoms: CA_10  and  C_11 
REMARK       I    between atoms: C_11  and  N_28 
REMARK    7  A    between atoms: CA_15  and  CB_17 
REMARK    8  A    between atoms: CA_15  and  C_16 
REMARK    9  A    between atoms: CA_15  and  N_28 
REMARK       I    between atoms: C_16  and  N_37 
REMARK   10  A    between atoms: CB_17  and  CG_18 
REMARK   11  A    between atoms: CA_31  and  CB_33 
REMARK   12  A    between atoms: CA_31  and  N_37 
REMARK   13  A    between atoms: CA_31  and  C_32 
REMARK       I    between atoms: C_32  and  N_47 
REMARK   14  A    between atoms: CB_33  and  CG_34 
REMARK   15  A    between atoms: CG_34  and  CD_35 
REMARK   16  A    between atoms: CA_41  and  N_47 
REMARK   17  A    between atoms: CA_41  and  CB_43 
REMARK   18  A    between atoms: CA_41  and  C_42 
REMARK       I    between atoms: C_42  and  N_63 
REMARK   19  A    between atoms: CB_43  and  OG1_49 
REMARK   20  A    between atoms: CA_50  and  CB_52 
REMARK   21  A    between atoms: CA_50  and  N_63 
REMARK   22  A    between atoms: CA_50  and  C_51 
REMARK       I    between atoms: C_51  and  N_72 
REMARK   23  A    between atoms: CB_52  and  CG_53 
REMARK   24  A    between atoms: CA_66  and  CB_68 
REMARK   25  A    between atoms: CA_66  and  C_67 
REMARK   26  A    between atoms: CA_66  and  N_72 
ROOT
ATOM      1  CA  GLU B   4       7.076  91.938  61.975  1.00  0.00     0.177 C 
ENDROOT
BRANCH   1   2
ATOM      2  CB  GLU B   4       6.864  93.357  61.448  1.00  0.00     0.045 C 
BRANCH   2   3
ATOM      3  CG  GLU B   4       5.488  93.577  60.841  1.00  0.00     0.116 C 
BRANCH   3   4
ATOM      4  CD  GLU B   4       4.510  94.205  61.816  1.00  0.00     0.172 C 
ATOM      5  OE1 GLU B   4       4.435  93.731  62.968  1.00  0.00    -0.648 OA
ATOM      6  OE2 GLU B   4       3.820  95.170  61.426  1.00  0.00    -0.648 OA
ENDBRANCH   3   4
ENDBRANCH   2   3
ENDBRANCH   1   2
BRANCH   1   7
ATOM      7  N   GLU B   4       5.826  91.181  61.929  1.00  0.00    -0.346 N 
ATOM      8  H   GLU B   4       5.080  91.522  61.392  1.00  0.23     0.163 HD
ATOM      9  C   TRP B   3       5.681  90.043  62.602  1.00  0.00     0.241 C 
ATOM     10  O   TRP B   3       6.576  89.561  63.294  1.00  0.00    -0.271 OA
BRANCH   9  11
ATOM     11  CA  TRP B   3       4.330  89.345  62.478  1.00  0.00     0.181 C 
BRANCH  11  12
ATOM     12  CB  TRP B   3       4.086  88.453  63.704  1.00  0.00     0.075 C 
BRANCH  12  13
ATOM     13  CG  TRP B   3       2.692  87.904  63.792  1.00  0.00    -0.028 A 
ATOM     14  CD1 TRP B   3       1.609  88.508  64.363  1.00  0.00     0.096 A 
ATOM     15  NE1 TRP B   3       0.505  87.694  64.259  1.00  0.00    -0.365 N 
ATOM     16  CE2 TRP B   3       0.864  86.540  63.614  1.00  0.00     0.042 A 
ATOM     17  HE1 TRP B   3      -0.392  87.909  64.591  1.00  0.23     0.165 HD
ATOM     18  CZ2 TRP B   3       0.099  85.425  63.277  1.00  0.00     0.030 A 
ATOM     19  CD2 TRP B   3       2.234  86.636  63.307  1.00  0.00    -0.002 A 
ATOM     20  CH2 TRP B   3       0.728  84.401  62.625  1.00  0.00     0.002 A 
ATOM     21  CZ3 TRP B   3       2.090  84.466  62.307  1.00  0.00     0.001 A 
ATOM     22  CE3 TRP B   3       2.849  85.571  62.640  1.00  0.00     0.014 A 
ENDBRANCH  12  13
ENDBRANCH  11  12
BRANCH  11  23
ATOM     23  N   TRP B   3       4.249  88.572  61.242  1.00  0.00    -0.346 N 
ATOM     24  C   GLY B   2       3.238  88.722  60.390  1.00  0.00     0.236 C 
ATOM     25  O   GLY B   2       2.313  89.509  60.579  1.00  0.00    -0.272 OA
ATOM     26  H   TRP B   3       4.961  87.930  61.033  1.00  0.23     0.163 HD
BRANCH  24  27
ATOM     27  CA  GLY B   2       3.278  87.861  59.142  1.00  0.00     0.225 C 
BRANCH  27  28
ATOM     28  N   GLY B   2       4.626  87.673  58.636  1.00  0.00    -0.350 N 
ATOM     29  H   GLY B   2       5.015  88.336  58.028  1.00  0.23     0.163 HD
ATOM     30  C   ASP B   1       5.353  86.601  58.972  1.00  0.00     0.254 C 
ATOM     31  O   ASP B   1       4.926  85.736  59.746  1.00  0.00    -0.271 OA
BRANCH  30  32
ATOM     32  CA  ASP B   1       6.738  86.532  58.377  1.00  0.00     0.359 C 
BRANCH  32  33
ATOM     33  CB  ASP B   1       7.825  86.678  59.478  1.00  0.00     0.161 C 
BRANCH  33  34
ATOM     34  CG  ASP B   1       7.781  87.988  60.278  1.00  0.00     0.175 C 
ATOM     35  OD1 ASP B   1       8.312  88.029  61.407  1.00  0.00    -0.648 OA
ATOM     36  OD2 ASP B   1       7.174  88.966  59.793  1.00  0.00    -0.648 OA
ENDBRANCH  33  34
ENDBRANCH  32  33
BRANCH  32  37
ATOM     37  N   ASP B   1       6.914  87.548  57.344  1.00  0.00     0.312 N 
ATOM     38  H   ASP B   1       5.966  87.931  57.057  1.00  0.00     0.359 HD
ENDBRANCH  32  37
ENDBRANCH  30  32
ENDBRANCH  27  28
ENDBRANCH  24  27
ENDBRANCH  11  23
ENDBRANCH   9  11
ENDBRANCH   1   7
BRANCH   1  39
ATOM     39  C   GLU B   4       7.625  91.994  63.397  1.00  0.00     0.241 C 
ATOM     40  N   THR B   5       8.757  91.331  63.615  1.00  7.70    -0.344 N 
ATOM     41  H   THR B   5       9.176  90.849  62.871  1.00  0.23     0.163 HD
ATOM     42  O   GLU B   4       7.037  92.626  64.275  1.00  0.00    -0.271 OA
BRANCH  40  43
ATOM     43  CA  THR B   5       9.395  91.303  64.928  1.00  7.88     0.205 C 
BRANCH  43  44
ATOM     44  CB  THR B   5      10.257  92.551  65.126  1.00  4.05     0.146 C 
ATOM     45  CG2 THR B   5      11.347  92.695  64.086  1.00  3.72     0.042 C 
BRANCH  44  46
ATOM     46  OG1 THR B   5       9.461  93.722  65.078  1.00  7.31    -0.393 OA
ATOM     47  HG1 THR B   5       8.875  93.742  65.838  1.00  0.23     0.210 HD
ENDBRANCH  44  46
ENDBRANCH  43  44
BRANCH  43  48
ATOM     48  C   THR B   5       8.347  91.213  66.033  1.00  7.05     0.243 C 
ATOM     49  N   TRP B   6       7.668  90.074  66.109  1.00  0.00    -0.346 N 
ATOM     50  H   TRP B   6       7.863  89.357  65.470  1.00  0.23     0.163 HD
ATOM     51  O   THR B   5       8.157  92.158  66.798  1.00  6.06    -0.271 OA
BRANCH  49  52
ATOM     52  CA  TRP B   6       6.638  89.865  67.118  1.00  0.00     0.181 C 
BRANCH  52  53
ATOM     53  CB  TRP B   6       5.550  88.936  66.577  1.00  0.00     0.075 C 
BRANCH  53  54
ATOM     54  CG  TRP B   6       4.249  89.073  67.306  1.00  0.00    -0.028 A 
ATOM     55  CD2 TRP B   6       3.293  90.131  67.161  1.00  0.00    -0.002 A 
ATOM     56  CE2 TRP B   6       2.224  89.848  68.031  1.00  0.00     0.042 A 
ATOM     57  CE3 TRP B   6       3.239  91.288  66.380  1.00  0.00     0.014 A 
ATOM     58  CZ2 TRP B   6       1.114  90.681  68.141  1.00  0.00     0.030 A 
ATOM     59  NE1 TRP B   6       2.516  88.674  68.676  1.00  0.00    -0.365 N 
ATOM     60  CH2 TRP B   6       1.086  91.808  67.366  1.00  0.00     0.002 A 
ATOM     61  CZ3 TRP B   6       2.135  92.115  66.491  1.00  0.00     0.001 A 
ATOM     62  HE1 TRP B   6       1.949  88.232  69.342  1.00  0.23     0.165 HD
ATOM     63  CD1 TRP B   6       3.734  88.216  68.234  1.00  0.00     0.096 A 
ENDBRANCH  53  54
ENDBRANCH  52  53
BRANCH  52  64
ATOM     64  C   TRP B   6       7.236  89.287  68.396  1.00  0.00     0.241 C 
ATOM     65  O   TRP B   6       7.113  89.874  69.472  1.00  0.00    -0.271 OA
ATOM     66  N   VAL B   7       7.879  88.131  68.270  1.00  6.11    -0.344 N 
ATOM     67  H   VAL B   7       7.940  87.713  67.386  1.00  0.23     0.163 HD
BRANCH  66  68
ATOM     68  CA  VAL B   7       8.494  87.468  69.412  1.00  5.65     0.189 C 
BRANCH  68  69
ATOM     69  CB  VAL B   7       8.370  85.935  69.301  1.00  1.15     0.010 C 
ATOM     70  CG1 VAL B   7       6.997  85.475  69.770  1.00  4.96     0.012 C 
ATOM     71  CG2 VAL B   7       8.634  85.477  67.874  1.00  9.83     0.012 C 
ENDBRANCH  68  69
BRANCH  68  72
ATOM     72  C   VAL B   7       9.968  87.841  69.538  1.00  4.44     0.197 C 
ATOM     73  OXT VAL B   7      10.507  88.450  68.592  1.00  0.00    -0.646 OA
ATOM     74  O   VAL B   7      10.570  87.520  70.584  1.00  0.00    -0.646 OA
ENDBRANCH  68  72
ENDBRANCH  66  68
ENDBRANCH  52  64
ENDBRANCH  49  52
ENDBRANCH  43  48
ENDBRANCH  40  43
ENDBRANCH   1  39
TORSDOF 26
ENDMDL
MODEL 7
REMARK VINA RESULT:      -6.5      3.612      9.445
REMARK  26 active torsions:
REMARK  status: ('A' for Active; 'I' for Inactive)
REMARK    1  A    between atoms: N_1  and  CA_2 
REMARK    2  A    between atoms: CA_2  and  CB_5 
REMARK    3  A    between atoms: CA_2  and  C_3 
REMARK       I    between atoms: C_3  and  N_13 
REMARK    4  A    between atoms: CB_5  and  CG_6 
REMARK    5  A    between atoms: CA_10  and  N_13 
REMARK    6  A    between atoms: CA_10  and  C_11 
REMARK       I    between atoms: C_11  and  N_28 
REMARK    7  A    between atoms: CA_15  and  CB_17 
REMARK    8  A    between atoms: CA_15  and  C_16 
REMARK    9  A    between atoms: CA_15  and  N_28 
REMARK       I    between atoms: C_16  and  N_37 
REMARK   10  A    between atoms: CB_17  and  CG_18 
REMARK   11  A    between atoms: CA_31  and  CB_33 
REMARK   12  A    between atoms: CA_31  and  N_37 
REMARK   13  A    between atoms: CA_31  and  C_32 
REMARK       I    between atoms: C_32  and  N_47 
REMARK   14  A    between atoms: CB_33  and  CG_34 
REMARK   15  A    between atoms: CG_34  and  CD_35 
REMARK   16  A    between atoms: CA_41  and  N_47 
REMARK   17  A    between atoms: CA_41  and  CB_43 
REMARK   18  A    between atoms: CA_41  and  C_42 
REMARK       I    between atoms: C_42  and  N_63 
REMARK   19  A    between atoms: CB_43  and  OG1_49 
REMARK   20  A    between atoms: CA_50  and  CB_52 
REMARK   21  A    between atoms: CA_50  and  N_63 
REMARK   22  A    between atoms: CA_50  and  C_51 
REMARK       I    between atoms: C_51  and  N_72 
REMARK   23  A    between atoms: CB_52  and  CG_53 
REMARK   24  A    between atoms: CA_66  and  CB_68 
REMARK   25  A    between atoms: CA_66  and  C_67 
REMARK   26  A    between atoms: CA_66  and  N_72 
ROOT
ATOM      1  CA  GLU B   4       9.756  93.276  63.042  1.00  0.00     0.177 C 
ENDROOT
BRANCH   1   2
ATOM      2  CB  GLU B   4      10.138  94.754  63.143  1.00  0.00     0.045 C 
BRANCH   2   3
ATOM      3  CG  GLU B   4      11.346  95.125  62.299  1.00  0.00     0.116 C 
BRANCH   3   4
ATOM      4  CD  GLU B   4      12.657  94.951  63.044  1.00  0.00     0.172 C 
ATOM      5  OE1 GLU B   4      13.340  93.933  62.811  1.00  0.00    -0.648 OA
ATOM      6  OE2 GLU B   4      12.997  95.833  63.859  1.00  0.00    -0.648 OA
ENDBRANCH   3   4
ENDBRANCH   2   3
ENDBRANCH   1   2
BRANCH   1   7
ATOM      7  N   GLU B   4       8.305  93.126  62.964  1.00  0.00    -0.346 N 
ATOM      8  H   GLU B   4       7.740  93.926  62.958  1.00  0.23     0.163 HD
ATOM      9  C   TRP B   3       7.736  91.924  62.906  1.00  0.00     0.241 C 
ATOM     10  O   TRP B   3       8.386  90.880  62.911  1.00  0.00    -0.271 OA
BRANCH   9  11
ATOM     11  CA  TRP B   3       6.213  91.894  62.830  1.00  0.00     0.181 C 
BRANCH  11  12
ATOM     12  CB  TRP B   3       5.668  90.736  63.679  1.00  0.00     0.075 C 
BRANCH  12  13
ATOM     13  CG  TRP B   3       4.767  89.799  62.928  1.00  0.00    -0.028 A 
ATOM     14  CD1 TRP B   3       3.404  89.847  62.867  1.00  0.00     0.096 A 
ATOM     15  NE1 TRP B   3       2.929  88.817  62.089  1.00  0.00    -0.365 N 
ATOM     16  CE2 TRP B   3       3.990  88.080  61.633  1.00  0.00     0.042 A 
ATOM     17  HE1 TRP B   3       1.985  88.642  61.893  1.00  0.23     0.165 HD
ATOM     18  CZ2 TRP B   3       4.015  86.951  60.818  1.00  0.00     0.030 A 
ATOM     19  CD2 TRP B   3       5.164  88.668  62.142  1.00  0.00    -0.002 A 
ATOM     20  CH2 TRP B   3       5.236  86.414  60.517  1.00  0.00     0.002 A 
ATOM     21  CZ3 TRP B   3       6.420  86.974  61.010  1.00  0.00     0.001 A 
ATOM     22  CE3 TRP B   3       6.398  88.095  61.819  1.00  0.00     0.014 A 
ENDBRANCH  12  13
ENDBRANCH  11  12
BRANCH  11  23
ATOM     23  N   TRP B   3       5.757  91.790  61.446  1.00  0.00    -0.346 N 
ATOM     24  C   GLY B   2       4.884  92.653  60.932  1.00  0.00     0.236 C 
ATOM     25  O   GLY B   2       4.405  93.585  61.576  1.00  0.00    -0.272 OA
ATOM     26  H   TRP B   3       6.107  91.069  60.881  1.00  0.23     0.163 HD
BRANCH  24  27
ATOM     27  CA  GLY B   2       4.497  92.435  59.482  1.00  0.00     0.225 C 
BRANCH  27  28
ATOM     28  N   GLY B   2       3.245  91.713  59.341  1.00  0.00    -0.350 N 
ATOM     29  H   GLY B   2       2.408  92.130  59.630  1.00  0.23     0.163 HD
ATOM     30  C   ASP B   1       3.208  90.475  58.835  1.00  0.00     0.254 C 
ATOM     31  O   ASP B   1       4.228  89.898  58.438  1.00  0.00    -0.271 OA
BRANCH  30  32
ATOM     32  CA  ASP B   1       1.841  89.842  58.744  1.00  0.00     0.359 C 
BRANCH  32  33
ATOM     33  CB  ASP B   1       1.752  88.882  57.526  1.00  0.00     0.161 C 
BRANCH  33  34
ATOM     34  CG  ASP B   1       0.573  87.898  57.544  1.00  0.00     0.175 C 
ATOM     35  OD1 ASP B   1      -0.055  87.721  58.607  1.00  0.00    -0.648 OA
ATOM     36  OD2 ASP B   1       0.304  87.268  56.500  1.00  0.00    -0.648 OA
ENDBRANCH  33  34
ENDBRANCH  32  33
BRANCH  32  37
ATOM     37  N   ASP B   1       0.797  90.860  58.672  1.00  0.00     0.312 N 
ATOM     38  H   ASP B   1      -0.132  90.401  58.436  1.00  0.00     0.359 HD
ENDBRANCH  32  37
ENDBRANCH  30  32
ENDBRANCH  27  28
ENDBRANCH  24  27
ENDBRANCH  11  23
ENDBRANCH   9  11
ENDBRANCH   1   7
BRANCH   1  39
ATOM     39  C   GLU B   4      10.318  92.517  64.240  1.00  0.00     0.241 C 
ATOM     40  N   THR B   5      11.351  91.716  63.994  1.00  7.70    -0.344 N 
ATOM     41  H   THR B   5      11.695  91.652  63.079  1.00  0.23     0.163 HD
ATOM     42  O   GLU B   4       9.828  92.657  65.361  1.00  0.00    -0.271 OA
BRANCH  40  43
ATOM     43  CA  THR B   5      11.989  90.933  65.048  1.00  7.88     0.205 C 
BRANCH  43  44
ATOM     44  CB  THR B   5      12.508  91.855  66.154  1.00  4.05     0.146 C 
ATOM     45  CG2 THR B   5      13.748  91.324  66.840  1.00  3.72     0.042 C 
BRANCH  44  46
ATOM     46  OG1 THR B   5      12.821  93.135  65.633  1.00  7.31    -0.393 OA
ATOM     47  HG1 THR B   5      13.772  93.264  65.651  1.00  0.23     0.210 HD
ENDBRANCH  44  46
ENDBRANCH  43  44
BRANCH  43  48
ATOM     48  C   THR B   5      11.010  89.920  65.633  1.00  7.05     0.243 C 
ATOM     49  N   TRP B   6      10.793  89.999  66.941  1.00  0.00    -0.346 N 
ATOM     50  H   TRP B   6      11.258  90.686  67.463  1.00  0.23     0.163 HD
ATOM     51  O   THR B   5      10.465  89.084  64.913  1.00  6.06    -0.271 OA
BRANCH  49  52
ATOM     52  CA  TRP B   6       9.883  89.086  67.621  1.00  0.00     0.181 C 
BRANCH  52  53
ATOM     53  CB  TRP B   6      10.633  88.293  68.692  1.00  0.00     0.075 C 
BRANCH  53  54
ATOM     54  CG  TRP B   6       9.718  87.542  69.610  1.00  0.00    -0.028 A 
ATOM     55  CD2 TRP B   6       9.032  86.318  69.322  1.00  0.00    -0.002 A 
ATOM     56  CE2 TRP B   6       8.294  85.974  70.471  1.00  0.00     0.042 A 
ATOM     57  CE3 TRP B   6       8.970  85.481  68.205  1.00  0.00     0.014 A 
ATOM     58  CZ2 TRP B   6       7.505  84.828  70.532  1.00  0.00     0.030 A 
ATOM     59  NE1 TRP B   6       8.521  86.943  71.413  1.00  0.00    -0.365 N 
ATOM     60  CH2 TRP B   6       7.462  84.026  69.424  1.00  0.00     0.002 A 
ATOM     61  CZ3 TRP B   6       8.185  84.343  68.268  1.00  0.00     0.001 A 
ATOM     62  HE1 TRP B   6       8.136  86.964  72.314  1.00  0.23     0.165 HD
ATOM     63  CD1 TRP B   6       9.377  87.881  70.888  1.00  0.00     0.096 A 
ENDBRANCH  53  54
ENDBRANCH  52  53
BRANCH  52  64
ATOM     64  C   TRP B   6       8.717  89.844  68.247  1.00  0.00     0.241 C 
ATOM     65  O   TRP B   6       8.907  90.881  68.883  1.00  0.00    -0.271 OA
ATOM     66  N   VAL B   7       7.510  89.320  68.056  1.00  6.11    -0.344 N 
ATOM     67  H   VAL B   7       7.425  88.493  67.539  1.00  0.23     0.163 HD
BRANCH  66  68
ATOM     68  CA  VAL B   7       6.310  89.945  68.598  1.00  5.65     0.189 C 
BRANCH  68  69
ATOM     69  CB  VAL B   7       5.186  90.000  67.544  1.00  1.15     0.010 C 
ATOM     70  CG1 VAL B   7       5.112  88.688  66.775  1.00  4.96     0.012 C 
ATOM     71  CG2 VAL B   7       3.850  90.318  68.198  1.00  9.83     0.012 C 
ENDBRANCH  68  69
BRANCH  68  72
ATOM     72  C   VAL B   7       5.805  89.196  69.827  1.00  4.44     0.197 C 
ATOM     73  OXT VAL B   7       5.567  89.851  70.862  1.00  0.00    -0.646 OA
ATOM     74  O   VAL B   7       5.651  87.960  69.742  1.00  0.00    -0.646 OA
ENDBRANCH  68  72
ENDBRANCH  66  68
ENDBRANCH  52  64
ENDBRANCH  49  52
ENDBRANCH  43  48
ENDBRANCH  40  43
ENDBRANCH   1  39
TORSDOF 26
ENDMDL
