REMARK  26 active torsions:
REMARK  status: ('A' for Active; 'I' for Inactive)
REMARK    1  A    between atoms: N_1  and  CA_2 
REMARK    2  A    between atoms: CA_2  and  CB_5 
REMARK    3  A    between atoms: CA_2  and  C_3 
REMARK       I    between atoms: C_3  and  N_12 
REMARK    4  A    between atoms: CB_5  and  OG_6 
REMARK    5  A    between atoms: CA_9  and  N_12 
REMARK    6  A    between atoms: CA_9  and  C_10 
REMARK       I    between atoms: C_10  and  N_27 
REMARK    7  A    between atoms: CA_14  and  N_27 
REMARK    8  A    between atoms: CA_14  and  CB_16 
REMARK    9  A    between atoms: CA_14  and  C_15 
REMARK       I    between atoms: C_15  and  N_36 
REMARK   10  A    between atoms: CB_16  and  CG_17 
REMARK   11  A    between atoms: CA_30  and  CB_32 
REMARK   12  A    between atoms: CA_30  and  N_36 
REMARK   13  A    between atoms: CA_30  and  C_31 
REMARK       I    between atoms: C_31  and  N_46 
REMARK   14  A    between atoms: CB_32  and  CG_33 
REMARK   15  A    between atoms: CG_33  and  CD_34 
REMARK   16  A    between atoms: CA_40  and  N_46 
REMARK   17  A    between atoms: CA_40  and  C_41 
REMARK   18  A    between atoms: CA_40  and  CB_42 
REMARK       I    between atoms: C_41  and  N_62 
REMARK   19  A    between atoms: CB_42  and  OG1_48 
REMARK   20  A    between atoms: CA_49  and  N_62 
REMARK   21  A    between atoms: CA_49  and  CB_51 
REMARK   22  A    between atoms: CA_49  and  C_50 
REMARK       I    between atoms: C_50  and  N_71 
REMARK   23  A    between atoms: CB_51  and  CG_52 
REMARK   24  A    between atoms: CA_65  and  CB_67 
REMARK   25  A    between atoms: CA_65  and  C_66 
REMARK   26  A    between atoms: CA_65  and  N_71 
ROOT
ATOM      1  CA  GLU B   4       2.935  -2.082  -1.427  1.00  0.00     0.177 C 
ENDROOT
BRANCH   1   2
ATOM      2  CB  GLU B   4       1.619  -1.618  -2.053  1.00  0.00     0.045 C 
BRANCH   2   3
ATOM      3  CG  GLU B   4       0.498  -1.442  -1.042  1.00  0.00     0.116 C 
BRANCH   3   4
ATOM      4  CD  GLU B   4      -0.456  -2.621  -1.013  1.00  0.00     0.172 C 
ATOM      5  OE1 GLU B   4      -1.137  -2.858  -2.032  1.00  0.00    -0.648 OA
ATOM      6  OE2 GLU B   4      -0.521  -3.306   0.029  1.00  0.00    -0.648 OA
ENDBRANCH   3   4
ENDBRANCH   2   3
ENDBRANCH   1   2
BRANCH   1   7
ATOM      7  N   GLU B   4       2.719  -3.266  -0.598  1.00  0.00    -0.346 N 
ATOM      8  H   GLU B   4       1.805  -3.516  -0.349  1.00  0.23     0.163 HD
ATOM      9  C   TRP B   3       3.738  -4.008  -0.173  1.00  0.00     0.241 C 
ATOM     10  O   TRP B   3       4.909  -3.750  -0.448  1.00  0.00    -0.271 OA
BRANCH   9  11
ATOM     11  CA  TRP B   3       3.388  -5.218   0.688  1.00  0.00     0.181 C 
BRANCH  11  12
ATOM     12  N   TRP B   3       2.351  -4.888   1.662  1.00  0.00    -0.346 N 
ATOM     13  H   TRP B   3       1.886  -4.027   1.592  1.00  0.23     0.163 HD
ATOM     14  C   GLY B   2       2.027  -5.723   2.646  1.00  0.00     0.236 C 
ATOM     15  O   GLY B   2       2.568  -6.816   2.803  1.00  0.00    -0.272 OA
BRANCH  14  16
ATOM     16  CA  GLY B   2       0.937  -5.257   3.592  1.00  0.00     0.225 C 
BRANCH  16  17
ATOM     17  N   GLY B   2      -0.095  -6.259   3.790  1.00  0.00    -0.350 N 
ATOM     18  C   SER B   1       0.092  -7.295   4.620  1.00  0.00     0.256 C 
ATOM     19  O   SER B   1       1.152  -7.467   5.226  1.00  0.00    -0.271 OA
ATOM     20  H   GLY B   2      -0.951  -6.176   3.321  1.00  0.23     0.163 HD
BRANCH  18  21
ATOM     21  CA  SER B   1      -1.065  -8.260   4.721  1.00  0.00     0.373 C 
BRANCH  21  22
ATOM     22  N   SER B   1      -2.220  -7.628   5.351  1.00  0.00     0.314 N 
ATOM     23  H   SER B   1      -1.997  -6.610   5.561  1.00  0.00     0.359 HD
ENDBRANCH  21  22
BRANCH  21  24
ATOM     24  CB  SER B   1      -1.444  -8.843   3.336  1.00  0.00     0.212 C 
BRANCH  24  25
ATOM     25  OG  SER B   1      -1.809  -7.835   2.388  1.00  0.00    -0.398 OA
ATOM     26  HG  SER B   1      -2.596  -7.398   2.723  1.00  0.00     0.209 HD
ENDBRANCH  24  25
ENDBRANCH  21  24
ENDBRANCH  18  21
ENDBRANCH  16  17
ENDBRANCH  14  16
ENDBRANCH  11  12
BRANCH  11  27
ATOM     27  CB  TRP B   3       2.953  -6.389  -0.205  1.00  0.00     0.075 C 
BRANCH  27  28
ATOM     28  CG  TRP B   3       1.526  -6.311  -0.663  1.00  0.00    -0.028 A 
ATOM     29  CD1 TRP B   3       0.426  -6.770   0.003  1.00  0.00     0.096 A 
ATOM     30  NE1 TRP B   3      -0.709  -6.527  -0.735  1.00  0.00    -0.365 N 
ATOM     31  CE2 TRP B   3      -0.354  -5.903  -1.902  1.00  0.00     0.042 A 
ATOM     32  HE1 TRP B   3      -1.622  -6.762  -0.467  1.00  0.23     0.165 HD
ATOM     33  CZ2 TRP B   3      -1.145  -5.461  -2.960  1.00  0.00     0.030 A 
ATOM     34  CD2 TRP B   3       1.046  -5.752  -1.892  1.00  0.00    -0.002 A 
ATOM     35  CH2 TRP B   3      -0.513  -4.862  -4.015  1.00  0.00     0.002 A 
ATOM     36  CZ3 TRP B   3       0.877  -4.699  -4.035  1.00  0.00     0.001 A 
ATOM     37  CE3 TRP B   3       1.663  -5.137  -2.986  1.00  0.00     0.014 A 
ENDBRANCH  27  28
ENDBRANCH  11  27
ENDBRANCH   9  11
ENDBRANCH   1   7
BRANCH   1  38
ATOM     38  C   GLU B   4       3.543  -0.948  -0.607  1.00  0.00     0.241 C 
ATOM     39  N   THR B   5       4.607  -0.349  -1.134  1.00  7.70    -0.344 N 
ATOM     40  H   THR B   5       4.944  -0.656  -2.002  1.00  0.23     0.163 HD
ATOM     41  O   GLU B   4       3.056  -0.622   0.476  1.00  0.00    -0.271 OA
BRANCH  39  42
ATOM     42  CA  THR B   5       5.286   0.753  -0.459  1.00  7.88     0.205 C 
BRANCH  42  43
ATOM     43  C   THR B   5       5.323   1.989  -1.352  1.00  7.05     0.243 C 
ATOM     44  N   TRP B   6       4.731   3.078  -0.874  1.00  0.00    -0.346 N 
ATOM     45  H   TRP B   6       4.307   3.044   0.009  1.00  0.23     0.163 HD
ATOM     46  O   THR B   5       5.874   1.955  -2.452  1.00  6.06    -0.271 OA
BRANCH  44  47
ATOM     47  CA  TRP B   6       4.694   4.322  -1.632  1.00  0.00     0.181 C 
BRANCH  47  48
ATOM     48  CB  TRP B   6       3.466   5.144  -1.238  1.00  0.00     0.075 C 
BRANCH  48  49
ATOM     49  CG  TRP B   6       2.176   4.494  -1.635  1.00  0.00    -0.028 A 
ATOM     50  CD2 TRP B   6       1.490   4.644  -2.884  1.00  0.00    -0.002 A 
ATOM     51  CE2 TRP B   6       0.330   3.849  -2.820  1.00  0.00     0.042 A 
ATOM     52  CE3 TRP B   6       1.744   5.374  -4.048  1.00  0.00     0.014 A 
ATOM     53  CZ2 TRP B   6      -0.572   3.764  -3.877  1.00  0.00     0.030 A 
ATOM     54  NE1 TRP B   6       0.312   3.244  -1.590  1.00  0.00    -0.365 N 
ATOM     55  CH2 TRP B   6      -0.300   4.489  -5.005  1.00  0.00     0.002 A 
ATOM     56  CZ3 TRP B   6       0.846   5.288  -5.097  1.00  0.00     0.001 A 
ATOM     57  HE1 TRP B   6      -0.381   2.631  -1.266  1.00  0.23     0.165 HD
ATOM     58  CD1 TRP B   6       1.424   3.637  -0.885  1.00  0.00     0.096 A 
ENDBRANCH  48  49
ENDBRANCH  47  48
BRANCH  47  59
ATOM     59  C   TRP B   6       5.965   5.135  -1.408  1.00  0.00     0.241 C 
ATOM     60  O   TRP B   6       6.227   5.604  -0.300  1.00  0.00    -0.271 OA
ATOM     61  N   VAL B   7       6.752   5.293  -2.468  1.00  6.11    -0.344 N 
ATOM     62  H   VAL B   7       6.488   4.893  -3.322  1.00  0.23     0.163 HD
BRANCH  61  63
ATOM     63  CA  VAL B   7       7.998   6.045  -2.391  1.00  5.65     0.189 C 
BRANCH  63  64
ATOM     64  CB  VAL B   7       9.053   5.476  -3.360  1.00  1.15     0.010 C 
ATOM     65  CG1 VAL B   7       9.474   4.078  -2.930  1.00  4.96     0.012 C 
ATOM     66  CG2 VAL B   7       8.523   5.465  -4.786  1.00  9.83     0.012 C 
ENDBRANCH  63  64
BRANCH  63  67
ATOM     67  C   VAL B   7       7.772   7.520  -2.710  1.00  4.44     0.197 C 
ATOM     68  OXT VAL B   7       6.958   7.813  -3.609  1.00  0.00    -0.646 OA
ATOM     69  O   VAL B   7       8.412   8.369  -2.055  1.00  0.00    -0.646 OA
ENDBRANCH  63  67
ENDBRANCH  61  63
ENDBRANCH  47  59
ENDBRANCH  44  47
ENDBRANCH  42  43
BRANCH  42  70
ATOM     70  CB  THR B   5       6.709   0.344  -0.075  1.00  4.05     0.146 C 
ATOM     71  CG2 THR B   5       7.356   1.289   0.914  1.00  3.72     0.042 C 
BRANCH  70  72
ATOM     72  OG1 THR B   5       6.720  -0.951   0.499  1.00  7.31    -0.393 OA
ATOM     73  HG1 THR B   5       6.777  -1.609  -0.197  1.00  0.23     0.210 HD
ENDBRANCH  70  72
ENDBRANCH  42  70
ENDBRANCH  39  42
ENDBRANCH   1  38
TORSDOF 26
