REMARK  29 active torsions:
REMARK  status: ('A' for Active; 'I' for Inactive)
REMARK    1  A    between atoms: N_1  and  CA_2 
REMARK    2  A    between atoms: CA_2  and  CB_5 
REMARK    3  A    between atoms: CA_2  and  C_3 
REMARK       I    between atoms: C_3  and  N_17 
REMARK    4  A    between atoms: CB_5  and  CG_6 
REMARK    5  A    between atoms: CG_6  and  CD_7 
REMARK    6  A    between atoms: CD_7  and  CE_8 
REMARK    7  A    between atoms: CE_8  and  NZ_9 
REMARK    8  A    between atoms: CA_14  and  N_17 
REMARK    9  A    between atoms: CA_14  and  C_15 
REMARK       I    between atoms: C_15  and  N_32 
REMARK   10  A    between atoms: CA_19  and  CB_21 
REMARK   11  A    between atoms: CA_19  and  N_32 
REMARK   12  A    between atoms: CA_19  and  C_20 
REMARK       I    between atoms: C_20  and  N_41 
REMARK   13  A    between atoms: CB_21  and  CG_22 
REMARK   14  A    between atoms: CA_35  and  N_41 
REMARK   15  A    between atoms: CA_35  and  CB_37 
REMARK   16  A    between atoms: CA_35  and  C_36 
REMARK       I    between atoms: C_36  and  N_51 
REMARK   17  A    between atoms: CB_37  and  CG_38 
REMARK   18  A    between atoms: CG_38  and  CD_39 
REMARK   19  A    between atoms: CA_45  and  N_51 
REMARK   20  A    between atoms: CA_45  and  CB_47 
REMARK   21  A    between atoms: CA_45  and  C_46 
REMARK       I    between atoms: C_46  and  N_67 
REMARK   22  A    between atoms: CB_47  and  OG1_53 
REMARK   23  A    between atoms: CA_54  and  CB_56 
REMARK   24  A    between atoms: CA_54  and  N_67 
REMARK   25  A    between atoms: CA_54  and  C_55 
REMARK       I    between atoms: C_55  and  N_76 
REMARK   26  A    between atoms: CB_56  and  CG_57 
REMARK   27  A    between atoms: CA_70  and  N_76 
REMARK   28  A    between atoms: CA_70  and  CB_72 
REMARK   29  A    between atoms: CA_70  and  C_71 
ROOT
ATOM      1  CA  GLU B   4       2.935  -2.082  -1.427  1.00  0.00     0.177 C 
ENDROOT
BRANCH   1   2
ATOM      2  N   GLU B   4       2.719  -3.266  -0.598  1.00  0.00    -0.346 N 
ATOM      3  H   GLU B   4       1.805  -3.516  -0.349  1.00  0.23     0.163 HD
ATOM      4  C   TRP B   3       3.738  -4.008  -0.173  1.00  0.00     0.241 C 
ATOM      5  O   TRP B   3       4.909  -3.750  -0.448  1.00  0.00    -0.271 OA
BRANCH   4   6
ATOM      6  CA  TRP B   3       3.388  -5.218   0.688  1.00  0.00     0.181 C 
BRANCH   6   7
ATOM      7  CB  TRP B   3       2.953  -6.389  -0.205  1.00  0.00     0.075 C 
BRANCH   7   8
ATOM      8  CG  TRP B   3       1.526  -6.311  -0.663  1.00  0.00    -0.028 A 
ATOM      9  CD2 TRP B   3       1.046  -5.752  -1.892  1.00  0.00    -0.002 A 
ATOM     10  CE2 TRP B   3      -0.354  -5.903  -1.902  1.00  0.00     0.042 A 
ATOM     11  CE3 TRP B   3       1.663  -5.137  -2.986  1.00  0.00     0.014 A 
ATOM     12  NE1 TRP B   3      -0.709  -6.527  -0.735  1.00  0.00    -0.365 N 
ATOM     13  CZ2 TRP B   3      -1.145  -5.461  -2.960  1.00  0.00     0.030 A 
ATOM     14  HE1 TRP B   3      -1.622  -6.762  -0.467  1.00  0.23     0.165 HD
ATOM     15  CD1 TRP B   3       0.426  -6.770   0.003  1.00  0.00     0.096 A 
ATOM     16  CH2 TRP B   3      -0.513  -4.862  -4.015  1.00  0.00     0.002 A 
ATOM     17  CZ3 TRP B   3       0.877  -4.699  -4.035  1.00  0.00     0.001 A 
ENDBRANCH   7   8
ENDBRANCH   6   7
BRANCH   6  18
ATOM     18  N   TRP B   3       2.351  -4.888   1.662  1.00  0.00    -0.346 N 
ATOM     19  H   TRP B   3       1.886  -4.027   1.592  1.00  0.23     0.163 HD
ATOM     20  C   GLY B   2       2.027  -5.723   2.646  1.00  0.00     0.236 C 
ATOM     21  O   GLY B   2       2.568  -6.816   2.803  1.00  0.00    -0.272 OA
BRANCH  20  22
ATOM     22  CA  GLY B   2       0.937  -5.257   3.592  1.00  0.00     0.225 C 
BRANCH  22  23
ATOM     23  N   GLY B   2      -0.095  -6.259   3.790  1.00  0.00    -0.350 N 
ATOM     24  H   GLY B   2      -0.951  -6.176   3.321  1.00  0.23     0.163 HD
ATOM     25  C   LYS B   1       0.092  -7.294   4.615  1.00  0.00     0.254 C 
ATOM     26  O   LYS B   1       1.152  -7.467   5.226  1.00  0.00    -0.271 OA
BRANCH  25  27
ATOM     27  CA  LYS B   1      -1.058  -8.267   4.732  1.00  0.00     0.350 C 
BRANCH  27  28
ATOM     28  CB  LYS B   1      -1.448  -8.835   3.340  1.00  0.00     0.048 C 
BRANCH  28  29
ATOM     29  CG  LYS B   1      -2.450 -10.014   3.415  1.00  0.00     0.004 C 
BRANCH  29  30
ATOM     30  CD  LYS B   1      -2.847 -10.609   2.061  1.00  0.00     0.027 C 
BRANCH  30  31
ATOM     31  CE  LYS B   1      -3.849 -11.750   2.284  1.00  0.00     0.229 C 
BRANCH  31  32
ATOM     32  NZ  LYS B   1      -4.242 -12.318   0.983  1.00  0.00    -0.079 N 
ATOM     33  HZ1 LYS B   1      -3.443 -12.334   0.338  1.00  0.00     0.274 HD
ATOM     34  HZ2 LYS B   1      -4.551 -13.291   1.078  1.00  0.00     0.274 HD
ATOM     35  HZ3 LYS B   1      -4.990 -11.736   0.633  1.00  0.00     0.274 HD
ENDBRANCH  31  32
ENDBRANCH  30  31
ENDBRANCH  29  30
ENDBRANCH  28  29
ENDBRANCH  27  28
BRANCH  27  36
ATOM     36  N   LYS B   1      -2.222  -7.630   5.341  1.00  0.00     0.312 N 
ATOM     37  H   LYS B   1      -1.997  -6.610   5.561  1.00  0.00     0.359 HD
ENDBRANCH  27  36
ENDBRANCH  25  27
ENDBRANCH  22  23
ENDBRANCH  20  22
ENDBRANCH   6  18
ENDBRANCH   4   6
ENDBRANCH   1   2
BRANCH   1  38
ATOM     38  CB  GLU B   4       1.619  -1.618  -2.053  1.00  0.00     0.045 C 
BRANCH  38  39
ATOM     39  CG  GLU B   4       0.498  -1.442  -1.042  1.00  0.00     0.116 C 
BRANCH  39  40
ATOM     40  CD  GLU B   4      -0.456  -2.621  -1.013  1.00  0.00     0.172 C 
ATOM     41  OE2 GLU B   4      -0.521  -3.306   0.029  1.00  0.00    -0.648 OA
ATOM     42  OE1 GLU B   4      -1.137  -2.858  -2.032  1.00  0.00    -0.648 OA
ENDBRANCH  39  40
ENDBRANCH  38  39
ENDBRANCH   1  38
BRANCH   1  43
ATOM     43  C   GLU B   4       3.543  -0.948  -0.607  1.00  0.00     0.241 C 
ATOM     44  N   THR B   5       4.607  -0.349  -1.134  1.00  7.70    -0.344 N 
ATOM     45  H   THR B   5       4.944  -0.656  -2.002  1.00  0.23     0.163 HD
ATOM     46  O   GLU B   4       3.056  -0.622   0.476  1.00  0.00    -0.271 OA
BRANCH  44  47
ATOM     47  CA  THR B   5       5.286   0.753  -0.459  1.00  7.88     0.205 C 
BRANCH  47  48
ATOM     48  CB  THR B   5       6.709   0.344  -0.075  1.00  4.05     0.146 C 
ATOM     49  CG2 THR B   5       7.356   1.289   0.914  1.00  3.72     0.042 C 
BRANCH  48  50
ATOM     50  OG1 THR B   5       6.720  -0.951   0.499  1.00  7.31    -0.393 OA
ATOM     51  HG1 THR B   5       6.777  -1.609  -0.197  1.00  0.23     0.210 HD
ENDBRANCH  48  50
ENDBRANCH  47  48
BRANCH  47  52
ATOM     52  C   THR B   5       5.323   1.989  -1.352  1.00  7.05     0.243 C 
ATOM     53  N   TRP B   6       4.731   3.078  -0.874  1.00  0.00    -0.346 N 
ATOM     54  H   TRP B   6       4.307   3.044   0.009  1.00  0.23     0.163 HD
ATOM     55  O   THR B   5       5.874   1.955  -2.452  1.00  6.06    -0.271 OA
BRANCH  53  56
ATOM     56  CA  TRP B   6       4.694   4.322  -1.632  1.00  0.00     0.181 C 
BRANCH  56  57
ATOM     57  CB  TRP B   6       3.466   5.144  -1.238  1.00  0.00     0.075 C 
BRANCH  57  58
ATOM     58  CG  TRP B   6       2.176   4.494  -1.635  1.00  0.00    -0.028 A 
ATOM     59  CD2 TRP B   6       1.490   4.644  -2.884  1.00  0.00    -0.002 A 
ATOM     60  CE2 TRP B   6       0.330   3.849  -2.820  1.00  0.00     0.042 A 
ATOM     61  CE3 TRP B   6       1.744   5.374  -4.048  1.00  0.00     0.014 A 
ATOM     62  CZ2 TRP B   6      -0.572   3.764  -3.877  1.00  0.00     0.030 A 
ATOM     63  NE1 TRP B   6       0.312   3.244  -1.590  1.00  0.00    -0.365 N 
ATOM     64  CH2 TRP B   6      -0.300   4.489  -5.005  1.00  0.00     0.002 A 
ATOM     65  CZ3 TRP B   6       0.846   5.288  -5.097  1.00  0.00     0.001 A 
ATOM     66  HE1 TRP B   6      -0.381   2.631  -1.266  1.00  0.23     0.165 HD
ATOM     67  CD1 TRP B   6       1.424   3.637  -0.885  1.00  0.00     0.096 A 
ENDBRANCH  57  58
ENDBRANCH  56  57
BRANCH  56  68
ATOM     68  C   TRP B   6       5.965   5.135  -1.408  1.00  0.00     0.241 C 
ATOM     69  N   VAL B   7       6.752   5.293  -2.468  1.00  6.11    -0.344 N 
ATOM     70  H   VAL B   7       6.488   4.893  -3.322  1.00  0.23     0.163 HD
ATOM     71  O   TRP B   6       6.227   5.604  -0.300  1.00  0.00    -0.271 OA
BRANCH  69  72
ATOM     72  CA  VAL B   7       7.998   6.045  -2.391  1.00  5.65     0.189 C 
BRANCH  72  73
ATOM     73  CB  VAL B   7       9.053   5.476  -3.360  1.00  1.15     0.010 C 
ATOM     74  CG1 VAL B   7       9.474   4.078  -2.930  1.00  4.96     0.012 C 
ATOM     75  CG2 VAL B   7       8.523   5.465  -4.786  1.00  9.83     0.012 C 
ENDBRANCH  72  73
BRANCH  72  76
ATOM     76  C   VAL B   7       7.772   7.520  -2.710  1.00  4.44     0.197 C 
ATOM     77  OXT VAL B   7       6.958   7.813  -3.609  1.00  0.00    -0.646 OA
ATOM     78  O   VAL B   7       8.412   8.369  -2.055  1.00  0.00    -0.646 OA
ENDBRANCH  72  76
ENDBRANCH  69  72
ENDBRANCH  56  68
ENDBRANCH  53  56
ENDBRANCH  47  52
ENDBRANCH  44  47
ENDBRANCH   1  43
TORSDOF 29
