REMARK  23 active torsions:
REMARK  status: ('A' for Active; 'I' for Inactive)
REMARK    1  A    between atoms: CA_2  and  C_3 
REMARK       I    between atoms: C_3  and  N_11 
REMARK    2  A    between atoms: CA_8  and  N_11 
REMARK    3  A    between atoms: CA_8  and  C_9 
REMARK       I    between atoms: C_9  and  N_26 
REMARK    4  A    between atoms: CA_13  and  C_14 
REMARK    5  A    between atoms: CA_13  and  N_26 
REMARK    6  A    between atoms: CA_13  and  CB_15 
REMARK       I    between atoms: C_14  and  N_35 
REMARK    7  A    between atoms: CB_15  and  CG_16 
REMARK    8  A    between atoms: CA_29  and  N_35 
REMARK    9  A    between atoms: CA_29  and  CB_31 
REMARK   10  A    between atoms: CA_29  and  C_30 
REMARK       I    between atoms: C_30  and  N_45 
REMARK   11  A    between atoms: CB_31  and  CG_32 
REMARK   12  A    between atoms: CG_32  and  CD_33 
REMARK   13  A    between atoms: CA_39  and  N_45 
REMARK   14  A    between atoms: CA_39  and  CB_41 
REMARK   15  A    between atoms: CA_39  and  C_40 
REMARK       I    between atoms: C_40  and  N_61 
REMARK   16  A    between atoms: CB_41  and  OG1_47 
REMARK   17  A    between atoms: CA_48  and  CB_50 
REMARK   18  A    between atoms: CA_48  and  N_61 
REMARK   19  A    between atoms: CA_48  and  C_49 
REMARK       I    between atoms: C_49  and  N_70 
REMARK   20  A    between atoms: CB_50  and  CG_51 
REMARK   21  A    between atoms: CA_64  and  N_70 
REMARK   22  A    between atoms: CA_64  and  CB_66 
REMARK   23  A    between atoms: CA_64  and  C_65 
ROOT
ATOM      1  CA  GLU B   4       2.935  -2.082  -1.427  1.00  0.00     0.177 C 
ENDROOT
BRANCH   1   2
ATOM      2  N   GLU B   4       2.719  -3.266  -0.598  1.00  0.00    -0.346 N 
ATOM      3  H   GLU B   4       1.805  -3.516  -0.349  1.00  0.23     0.163 HD
ATOM      4  C   TRP B   3       3.738  -4.008  -0.173  1.00  0.00     0.241 C 
ATOM      5  O   TRP B   3       4.909  -3.750  -0.448  1.00  0.00    -0.271 OA
BRANCH   4   6
ATOM      6  CA  TRP B   3       3.388  -5.218   0.688  1.00  0.00     0.181 C 
BRANCH   6   7
ATOM      7  N   TRP B   3       2.351  -4.888   1.662  1.00  0.00    -0.346 N 
ATOM      8  H   TRP B   3       1.886  -4.027   1.592  1.00  0.23     0.163 HD
ATOM      9  C   GLY B   2       2.027  -5.723   2.646  1.00  0.00     0.236 C 
ATOM     10  O   GLY B   2       2.568  -6.816   2.803  1.00  0.00    -0.272 OA
BRANCH   9  11
ATOM     11  CA  GLY B   2       0.937  -5.257   3.592  1.00  0.00     0.225 C 
BRANCH  11  12
ATOM     12  N   GLY B   2      -0.095  -6.259   3.790  1.00  0.00    -0.350 N 
ATOM     13  H   GLY B   2      -0.951  -6.176   3.321  1.00  0.23     0.163 HD
ATOM     14  C   PRO B   1       0.125  -7.268   4.624  1.00  0.00     0.242 C 
ATOM     15  O   PRO B   1       1.152  -7.467   5.226  1.00  0.00    -0.271 OA
BRANCH  14  16
ATOM     16  CA  PRO B   1      -1.024  -8.283   4.745  1.00  0.00     0.193 C 
ATOM     17  CB  PRO B   1      -1.507  -8.809   3.385  1.00  0.00     0.038 C 
ATOM     18  CG  PRO B   1      -2.662  -7.865   3.020  1.00  0.00     0.024 C 
ATOM     19  CD  PRO B   1      -3.299  -7.547   4.375  1.00  0.00     0.143 C 
ATOM     20  N   PRO B   1      -2.231  -7.666   5.273  1.00  0.00    -0.315 NA
ENDBRANCH  14  16
ENDBRANCH  11  12
ENDBRANCH   9  11
ENDBRANCH   6   7
BRANCH   6  21
ATOM     21  CB  TRP B   3       2.953  -6.389  -0.205  1.00  0.00     0.075 C 
BRANCH  21  22
ATOM     22  CG  TRP B   3       1.526  -6.311  -0.663  1.00  0.00    -0.028 A 
ATOM     23  CD1 TRP B   3       0.426  -6.770   0.003  1.00  0.00     0.096 A 
ATOM     24  NE1 TRP B   3      -0.709  -6.527  -0.735  1.00  0.00    -0.365 N 
ATOM     25  CE2 TRP B   3      -0.354  -5.903  -1.902  1.00  0.00     0.042 A 
ATOM     26  HE1 TRP B   3      -1.622  -6.762  -0.467  1.00  0.23     0.165 HD
ATOM     27  CZ2 TRP B   3      -1.145  -5.461  -2.960  1.00  0.00     0.030 A 
ATOM     28  CD2 TRP B   3       1.046  -5.752  -1.892  1.00  0.00    -0.002 A 
ATOM     29  CH2 TRP B   3      -0.513  -4.862  -4.015  1.00  0.00     0.002 A 
ATOM     30  CZ3 TRP B   3       0.877  -4.699  -4.035  1.00  0.00     0.001 A 
ATOM     31  CE3 TRP B   3       1.663  -5.137  -2.986  1.00  0.00     0.014 A 
ENDBRANCH  21  22
ENDBRANCH   6  21
ENDBRANCH   4   6
ENDBRANCH   1   2
BRANCH   1  32
ATOM     32  CB  GLU B   4       1.619  -1.618  -2.053  1.00  0.00     0.045 C 
BRANCH  32  33
ATOM     33  CG  GLU B   4       0.498  -1.442  -1.042  1.00  0.00     0.116 C 
BRANCH  33  34
ATOM     34  CD  GLU B   4      -0.456  -2.621  -1.013  1.00  0.00     0.172 C 
ATOM     35  OE1 GLU B   4      -1.137  -2.858  -2.032  1.00  0.00    -0.648 OA
ATOM     36  OE2 GLU B   4      -0.521  -3.306   0.029  1.00  0.00    -0.648 OA
ENDBRANCH  33  34
ENDBRANCH  32  33
ENDBRANCH   1  32
BRANCH   1  37
ATOM     37  C   GLU B   4       3.543  -0.948  -0.607  1.00  0.00     0.241 C 
ATOM     38  N   THR B   5       4.607  -0.349  -1.134  1.00  7.70    -0.344 N 
ATOM     39  H   THR B   5       4.944  -0.656  -2.002  1.00  0.23     0.163 HD
ATOM     40  O   GLU B   4       3.056  -0.622   0.476  1.00  0.00    -0.271 OA
BRANCH  38  41
ATOM     41  CA  THR B   5       5.286   0.753  -0.459  1.00  7.88     0.205 C 
BRANCH  41  42
ATOM     42  CB  THR B   5       6.709   0.344  -0.075  1.00  4.05     0.146 C 
ATOM     43  CG2 THR B   5       7.356   1.289   0.914  1.00  3.72     0.042 C 
BRANCH  42  44
ATOM     44  OG1 THR B   5       6.720  -0.951   0.499  1.00  7.31    -0.393 OA
ATOM     45  HG1 THR B   5       6.777  -1.609  -0.197  1.00  0.23     0.210 HD
ENDBRANCH  42  44
ENDBRANCH  41  42
BRANCH  41  46
ATOM     46  C   THR B   5       5.323   1.989  -1.352  1.00  7.05     0.243 C 
ATOM     47  N   TRP B   6       4.731   3.078  -0.874  1.00  0.00    -0.346 N 
ATOM     48  H   TRP B   6       4.307   3.044   0.009  1.00  0.23     0.163 HD
ATOM     49  O   THR B   5       5.874   1.955  -2.452  1.00  6.06    -0.271 OA
BRANCH  47  50
ATOM     50  CA  TRP B   6       4.694   4.322  -1.632  1.00  0.00     0.181 C 
BRANCH  50  51
ATOM     51  CB  TRP B   6       3.466   5.144  -1.238  1.00  0.00     0.075 C 
BRANCH  51  52
ATOM     52  CG  TRP B   6       2.176   4.494  -1.635  1.00  0.00    -0.028 A 
ATOM     53  CD2 TRP B   6       1.490   4.644  -2.884  1.00  0.00    -0.002 A 
ATOM     54  CE2 TRP B   6       0.330   3.849  -2.820  1.00  0.00     0.042 A 
ATOM     55  CE3 TRP B   6       1.744   5.374  -4.048  1.00  0.00     0.014 A 
ATOM     56  CZ2 TRP B   6      -0.572   3.764  -3.877  1.00  0.00     0.030 A 
ATOM     57  NE1 TRP B   6       0.312   3.244  -1.590  1.00  0.00    -0.365 N 
ATOM     58  CH2 TRP B   6      -0.300   4.489  -5.005  1.00  0.00     0.002 A 
ATOM     59  CZ3 TRP B   6       0.846   5.288  -5.097  1.00  0.00     0.001 A 
ATOM     60  HE1 TRP B   6      -0.381   2.631  -1.266  1.00  0.23     0.165 HD
ATOM     61  CD1 TRP B   6       1.424   3.637  -0.885  1.00  0.00     0.096 A 
ENDBRANCH  51  52
ENDBRANCH  50  51
BRANCH  50  62
ATOM     62  C   TRP B   6       5.965   5.135  -1.408  1.00  0.00     0.241 C 
ATOM     63  N   VAL B   7       6.752   5.293  -2.468  1.00  6.11    -0.344 N 
ATOM     64  H   VAL B   7       6.488   4.893  -3.322  1.00  0.23     0.163 HD
ATOM     65  O   TRP B   6       6.227   5.604  -0.300  1.00  0.00    -0.271 OA
BRANCH  63  66
ATOM     66  CA  VAL B   7       7.998   6.045  -2.391  1.00  5.65     0.189 C 
BRANCH  66  67
ATOM     67  CB  VAL B   7       9.053   5.476  -3.360  1.00  1.15     0.010 C 
ATOM     68  CG1 VAL B   7       9.474   4.078  -2.930  1.00  4.96     0.012 C 
ATOM     69  CG2 VAL B   7       8.523   5.465  -4.786  1.00  9.83     0.012 C 
ENDBRANCH  66  67
BRANCH  66  70
ATOM     70  C   VAL B   7       7.772   7.520  -2.710  1.00  4.44     0.197 C 
ATOM     71  OXT VAL B   7       6.958   7.813  -3.609  1.00  0.00    -0.646 OA
ATOM     72  O   VAL B   7       8.412   8.369  -2.055  1.00  0.00    -0.646 OA
ENDBRANCH  66  70
ENDBRANCH  63  66
ENDBRANCH  50  62
ENDBRANCH  47  50
ENDBRANCH  41  46
ENDBRANCH  38  41
ENDBRANCH   1  37
TORSDOF 23
