MODEL 1
REMARK VINA RESULT:      -7.1      0.000      0.000
REMARK  24 active torsions:
REMARK  status: ('A' for Active; 'I' for Inactive)
REMARK    1  A    between atoms: N_1  and  CA_2 
REMARK    2  A    between atoms: CA_2  and  C_3 
REMARK       I    between atoms: C_3  and  N_10 
REMARK    3  A    between atoms: CA_7  and  N_10 
REMARK    4  A    between atoms: CA_7  and  C_8 
REMARK       I    between atoms: C_8  and  N_25 
REMARK    5  A    between atoms: CA_12  and  N_25 
REMARK    6  A    between atoms: CA_12  and  CB_14 
REMARK    7  A    between atoms: CA_12  and  C_13 
REMARK       I    between atoms: C_13  and  N_34 
REMARK    8  A    between atoms: CB_14  and  CG_15 
REMARK    9  A    between atoms: CA_28  and  CB_30 
REMARK   10  A    between atoms: CA_28  and  N_34 
REMARK   11  A    between atoms: CA_28  and  C_29 
REMARK       I    between atoms: C_29  and  N_44 
REMARK   12  A    between atoms: CB_30  and  CG_31 
REMARK   13  A    between atoms: CG_31  and  CD_32 
REMARK   14  A    between atoms: CA_38  and  N_44 
REMARK   15  A    between atoms: CA_38  and  C_39 
REMARK   16  A    between atoms: CA_38  and  CB_40 
REMARK       I    between atoms: C_39  and  N_60 
REMARK   17  A    between atoms: CB_40  and  OG1_46 
REMARK   18  A    between atoms: CA_47  and  N_60 
REMARK   19  A    between atoms: CA_47  and  CB_49 
REMARK   20  A    between atoms: CA_47  and  C_48 
REMARK       I    between atoms: C_48  and  N_69 
REMARK   21  A    between atoms: CB_49  and  CG_50 
REMARK   22  A    between atoms: CA_63  and  CB_65 
REMARK   23  A    between atoms: CA_63  and  C_64 
REMARK   24  A    between atoms: CA_63  and  N_69 
ROOT
ATOM      1  C   GLU B   4       4.537  88.863  66.556  1.00  0.00     0.241 C 
ATOM      2  O   GLU B   4       4.046  87.898  67.143  1.00  0.00    -0.271 OA
ATOM      3  H   THR B   5       4.298  90.388  65.287  1.00  0.23     0.163 HD
ATOM      4  N   THR B   5       3.845  89.636  65.724  1.00  7.70    -0.344 N 
ENDROOT
BRANCH   1   5
ATOM      5  CA  GLU B   4       6.005  89.231  66.752  1.00  0.00     0.177 C 
BRANCH   5   6
ATOM      6  CB  GLU B   4       6.112  90.459  67.657  1.00  0.00     0.045 C 
BRANCH   6   7
ATOM      7  CG  GLU B   4       6.869  90.194  68.949  1.00  0.00     0.116 C 
BRANCH   7   8
ATOM      8  CD  GLU B   4       8.344  90.530  68.844  1.00  0.00     0.172 C 
ATOM      9  OE1 GLU B   4       8.993  90.689  69.898  1.00  0.00    -0.648 OA
ATOM     10  OE2 GLU B   4       8.849  90.634  67.706  1.00  0.00    -0.648 OA
ENDBRANCH   7   8
ENDBRANCH   6   7
ENDBRANCH   5   6
BRANCH   5  11
ATOM     11  N   GLU B   4       6.655  89.482  65.468  1.00  0.00    -0.346 N 
ATOM     12  H   GLU B   4       6.333  90.216  64.904  1.00  0.23     0.163 HD
ATOM     13  C   TRP B   3       7.671  88.733  65.048  1.00  0.00     0.241 C 
ATOM     14  O   TRP B   3       8.122  87.796  65.706  1.00  0.00    -0.271 OA
BRANCH  13  15
ATOM     15  CA  TRP B   3       8.266  89.090  63.689  1.00  0.00     0.181 C 
BRANCH  15  16
ATOM     16  N   TRP B   3       9.714  89.258  63.777  1.00  0.00    -0.346 N 
ATOM     17  H   TRP B   3      10.298  88.509  63.530  1.00  0.23     0.163 HD
ATOM     18  C   GLY B   2      10.260  90.398  64.191  1.00  0.00     0.236 C 
ATOM     19  O   GLY B   2       9.595  91.378  64.523  1.00  0.00    -0.272 OA
BRANCH  18  20
ATOM     20  CA  GLY B   2      11.775  90.439  64.241  1.00  0.00     0.225 C 
BRANCH  20  21
ATOM     21  N   GLY B   2      12.330  91.523  63.449  1.00  0.00    -0.350 N 
ATOM     22  C   ALA B   1      13.007  92.520  64.029  1.00  0.00     0.253 C 
ATOM     23  O   ALA B   1      13.159  92.603  65.244  1.00  0.00    -0.271 OA
ATOM     24  H   GLY B   2      12.223  91.518  62.475  1.00  0.23     0.163 HD
BRANCH  22  25
ATOM     25  CA  ALA B   1      13.513  93.592  63.094  1.00  0.00     0.346 C 
ATOM     26  CB  ALA B   1      14.948  93.326  62.604  1.00  0.00     0.056 C 
BRANCH  25  27
ATOM     27  N   ALA B   1      13.503  94.900  63.742  1.00  0.00     0.311 N 
ATOM     28  H   ALA B   1      14.516  95.197  63.972  1.00  0.00     0.359 HD
ENDBRANCH  25  27
ENDBRANCH  22  25
ENDBRANCH  20  21
ENDBRANCH  18  20
ENDBRANCH  15  16
BRANCH  15  29
ATOM     29  CB  TRP B   3       7.897  88.015  62.657  1.00  0.00     0.075 C 
BRANCH  29  30
ATOM     30  CG  TRP B   3       7.424  88.566  61.343  1.00  0.00    -0.028 A 
ATOM     31  CD1 TRP B   3       8.034  88.426  60.130  1.00  0.00     0.096 A 
ATOM     32  NE1 TRP B   3       7.308  89.076  59.159  1.00  0.00    -0.365 N 
ATOM     33  CE2 TRP B   3       6.209  89.654  59.738  1.00  0.00     0.042 A 
ATOM     34  HE1 TRP B   3       7.541  89.118  58.207  1.00  0.23     0.165 HD
ATOM     35  CZ2 TRP B   3       5.188  90.411  59.169  1.00  0.00     0.030 A 
ATOM     36  CD2 TRP B   3       6.250  89.355  61.114  1.00  0.00    -0.002 A 
ATOM     37  CH2 TRP B   3       4.201  90.868  59.999  1.00  0.00     0.002 A 
ATOM     38  CZ3 TRP B   3       4.215  90.589  61.371  1.00  0.00     0.001 A 
ATOM     39  CE3 TRP B   3       5.228  89.838  61.937  1.00  0.00     0.014 A 
ENDBRANCH  29  30
ENDBRANCH  15  29
ENDBRANCH  13  15
ENDBRANCH   5  11
ENDBRANCH   1   5
BRANCH   4  40
ATOM     40  CA  THR B   5       2.434  89.396  65.441  1.00  7.88     0.205 C 
BRANCH  40  41
ATOM     41  C   THR B   5       2.268  88.670  64.110  1.00  7.05     0.243 C 
ATOM     42  N   TRP B   6       2.840  87.474  64.017  1.00  0.00    -0.346 N 
ATOM     43  H   TRP B   6       3.331  87.117  64.786  1.00  0.23     0.163 HD
ATOM     44  O   THR B   5       1.638  89.184  63.186  1.00  6.06    -0.271 OA
BRANCH  42  45
ATOM     45  CA  TRP B   6       2.758  86.682  62.797  1.00  0.00     0.181 C 
BRANCH  45  46
ATOM     46  CB  TRP B   6       4.160  86.296  62.323  1.00  0.00     0.075 C 
BRANCH  46  47
ATOM     47  CG  TRP B   6       4.321  86.392  60.836  1.00  0.00    -0.028 A 
ATOM     48  CD2 TRP B   6       5.367  85.811  60.049  1.00  0.00    -0.002 A 
ATOM     49  CE2 TRP B   6       5.115  86.150  58.706  1.00  0.00     0.042 A 
ATOM     50  CE3 TRP B   6       6.492  85.038  60.349  1.00  0.00     0.014 A 
ATOM     51  CZ2 TRP B   6       5.947  85.741  57.667  1.00  0.00     0.030 A 
ATOM     52  NE1 TRP B   6       3.969  86.903  58.679  1.00  0.00    -0.365 N 
ATOM     53  CH2 TRP B   6       7.041  84.986  57.989  1.00  0.00     0.002 A 
ATOM     54  CZ3 TRP B   6       7.317  84.633  59.315  1.00  0.00     0.001 A 
ATOM     55  HE1 TRP B   6       3.553  87.279  57.875  1.00  0.23     0.165 HD
ATOM     56  CD1 TRP B   6       3.499  87.043  59.962  1.00  0.00     0.096 A 
ENDBRANCH  46  47
ENDBRANCH  45  46
BRANCH  45  57
ATOM     57  C   TRP B   6       1.914  85.430  63.015  1.00  0.00     0.241 C 
ATOM     58  O   TRP B   6       0.786  85.337  62.531  1.00  0.00    -0.271 OA
ATOM     59  N   VAL B   7       2.472  84.469  63.745  1.00  6.11    -0.344 N 
ATOM     60  H   VAL B   7       3.375  84.603  64.101  1.00  0.23     0.163 HD
BRANCH  59  61
ATOM     61  CA  VAL B   7       1.776  83.220  64.027  1.00  5.65     0.189 C 
BRANCH  61  62
ATOM     62  CB  VAL B   7       2.686  82.004  63.765  1.00  1.15     0.010 C 
ATOM     63  CG1 VAL B   7       1.946  80.948  62.956  1.00  4.96     0.012 C 
ATOM     64  CG2 VAL B   7       3.962  82.430  63.055  1.00  9.83     0.012 C 
ENDBRANCH  61  62
BRANCH  61  65
ATOM     65  C   VAL B   7       1.289  83.175  65.472  1.00  4.44     0.197 C 
ATOM     66  OXT VAL B   7       0.180  83.683  65.739  1.00  0.00    -0.646 OA
ATOM     67  O   VAL B   7       2.021  82.631  66.325  1.00  0.00    -0.646 OA
ENDBRANCH  61  65
ENDBRANCH  59  61
ENDBRANCH  45  57
ENDBRANCH  42  45
ENDBRANCH  40  41
BRANCH  40  68
ATOM     68  CB  THR B   5       1.666  90.718  65.413  1.00  4.05     0.146 C 
ATOM     69  CG2 THR B   5       0.289  90.623  66.034  1.00  3.72     0.042 C 
BRANCH  68  70
ATOM     70  OG1 THR B   5       2.380  91.727  66.106  1.00  7.31    -0.393 OA
ATOM     71  HG1 THR B   5       2.514  91.455  67.017  1.00  0.23     0.210 HD
ENDBRANCH  68  70
ENDBRANCH  40  68
ENDBRANCH   4  40
TORSDOF 24
ENDMDL
MODEL 2
REMARK VINA RESULT:      -7.0      2.129      2.957
REMARK  24 active torsions:
REMARK  status: ('A' for Active; 'I' for Inactive)
REMARK    1  A    between atoms: N_1  and  CA_2 
REMARK    2  A    between atoms: CA_2  and  C_3 
REMARK       I    between atoms: C_3  and  N_10 
REMARK    3  A    between atoms: CA_7  and  N_10 
REMARK    4  A    between atoms: CA_7  and  C_8 
REMARK       I    between atoms: C_8  and  N_25 
REMARK    5  A    between atoms: CA_12  and  N_25 
REMARK    6  A    between atoms: CA_12  and  CB_14 
REMARK    7  A    between atoms: CA_12  and  C_13 
REMARK       I    between atoms: C_13  and  N_34 
REMARK    8  A    between atoms: CB_14  and  CG_15 
REMARK    9  A    between atoms: CA_28  and  CB_30 
REMARK   10  A    between atoms: CA_28  and  N_34 
REMARK   11  A    between atoms: CA_28  and  C_29 
REMARK       I    between atoms: C_29  and  N_44 
REMARK   12  A    between atoms: CB_30  and  CG_31 
REMARK   13  A    between atoms: CG_31  and  CD_32 
REMARK   14  A    between atoms: CA_38  and  N_44 
REMARK   15  A    between atoms: CA_38  and  C_39 
REMARK   16  A    between atoms: CA_38  and  CB_40 
REMARK       I    between atoms: C_39  and  N_60 
REMARK   17  A    between atoms: CB_40  and  OG1_46 
REMARK   18  A    between atoms: CA_47  and  N_60 
REMARK   19  A    between atoms: CA_47  and  CB_49 
REMARK   20  A    between atoms: CA_47  and  C_48 
REMARK       I    between atoms: C_48  and  N_69 
REMARK   21  A    between atoms: CB_49  and  CG_50 
REMARK   22  A    between atoms: CA_63  and  CB_65 
REMARK   23  A    between atoms: CA_63  and  C_64 
REMARK   24  A    between atoms: CA_63  and  N_69 
ROOT
ATOM      1  C   GLU B   4       4.977  89.561  65.490  1.00  0.00     0.241 C 
ATOM      2  O   GLU B   4       4.452  90.561  65.981  1.00  0.00    -0.271 OA
ATOM      3  H   THR B   5       5.061  88.243  63.991  1.00  0.23     0.163 HD
ATOM      4  N   THR B   5       4.602  89.042  64.325  1.00  7.70    -0.344 N 
ENDROOT
BRANCH   1   5
ATOM      5  CA  GLU B   4       6.113  88.841  66.212  1.00  0.00     0.177 C 
BRANCH   5   6
ATOM      6  CB  GLU B   4       5.616  88.315  67.560  1.00  0.00     0.045 C 
BRANCH   6   7
ATOM      7  CG  GLU B   4       6.555  87.305  68.197  1.00  0.00     0.116 C 
BRANCH   7   8
ATOM      8  CD  GLU B   4       7.274  87.858  69.413  1.00  0.00     0.172 C 
ATOM      9  OE1 GLU B   4       7.858  88.957  69.308  1.00  0.00    -0.648 OA
ATOM     10  OE2 GLU B   4       7.253  87.192  70.469  1.00  0.00    -0.648 OA
ENDBRANCH   7   8
ENDBRANCH   6   7
ENDBRANCH   5   6
BRANCH   5  11
ATOM     11  N   GLU B   4       7.257  89.731  66.399  1.00  0.00    -0.346 N 
ATOM     12  H   GLU B   4       7.277  90.329  67.175  1.00  0.23     0.163 HD
ATOM     13  C   TRP B   3       8.270  89.745  65.537  1.00  0.00     0.241 C 
ATOM     14  O   TRP B   3       8.308  89.021  64.543  1.00  0.00    -0.271 OA
BRANCH  13  15
ATOM     15  CA  TRP B   3       9.407  90.718  65.836  1.00  0.00     0.181 C 
BRANCH  15  16
ATOM     16  N   TRP B   3      10.540  90.494  64.942  1.00  0.00    -0.346 N 
ATOM     17  H   TRP B   3      10.370  90.264  64.004  1.00  0.23     0.163 HD
ATOM     18  C   GLY B   2      11.796  90.587  65.371  1.00  0.00     0.236 C 
ATOM     19  O   GLY B   2      12.089  90.865  66.532  1.00  0.00    -0.272 OA
BRANCH  18  20
ATOM     20  CA  GLY B   2      12.879  90.326  64.342  1.00  0.00     0.225 C 
BRANCH  20  21
ATOM     21  N   GLY B   2      13.130  91.477  63.493  1.00  0.00    -0.350 N 
ATOM     22  C   ALA B   1      14.210  92.244  63.678  1.00  0.00     0.253 C 
ATOM     23  O   ALA B   1      15.013  92.054  64.586  1.00  0.00    -0.271 OA
ATOM     24  H   GLY B   2      12.511  91.688  62.763  1.00  0.23     0.163 HD
BRANCH  22  25
ATOM     25  CA  ALA B   1      14.341  93.420  62.739  1.00  0.00     0.346 C 
ATOM     26  CB  ALA B   1      15.569  94.295  63.048  1.00  0.00     0.056 C 
BRANCH  25  27
ATOM     27  N   ALA B   1      13.161  94.275  62.804  1.00  0.00     0.311 N 
ATOM     28  H   ALA B   1      12.707  94.339  61.826  1.00  0.00     0.359 HD
ENDBRANCH  25  27
ENDBRANCH  22  25
ENDBRANCH  20  21
ENDBRANCH  18  20
ENDBRANCH  15  16
BRANCH  15  29
ATOM     29  CB  TRP B   3       8.901  92.164  65.734  1.00  0.00     0.075 C 
BRANCH  29  30
ATOM     30  CG  TRP B   3       8.428  92.550  64.362  1.00  0.00    -0.028 A 
ATOM     31  CD1 TRP B   3       9.175  92.590  63.220  1.00  0.00     0.096 A 
ATOM     32  NE1 TRP B   3       8.398  92.998  62.161  1.00  0.00    -0.365 N 
ATOM     33  CE2 TRP B   3       7.125  93.234  62.610  1.00  0.00     0.042 A 
ATOM     34  HE1 TRP B   3       8.706  93.103  61.237  1.00  0.23     0.165 HD
ATOM     35  CZ2 TRP B   3       5.993  93.660  61.918  1.00  0.00     0.030 A 
ATOM     36  CD2 TRP B   3       7.107  92.964  63.992  1.00  0.00    -0.002 A 
ATOM     37  CH2 TRP B   3       4.836  93.813  62.632  1.00  0.00     0.002 A 
ATOM     38  CZ3 TRP B   3       4.787  93.554  64.006  1.00  0.00     0.001 A 
ATOM     39  CE3 TRP B   3       5.909  93.131  64.694  1.00  0.00     0.014 A 
ENDBRANCH  29  30
ENDBRANCH  15  29
ENDBRANCH  13  15
ENDBRANCH   5  11
ENDBRANCH   1   5
BRANCH   4  40
ATOM     40  CA  THR B   5       3.527  89.627  63.529  1.00  7.88     0.205 C 
BRANCH  40  41
ATOM     41  C   THR B   5       2.601  88.539  62.995  1.00  7.05     0.243 C 
ATOM     42  N   TRP B   6       3.176  87.391  62.656  1.00  0.00    -0.346 N 
ATOM     43  H   TRP B   6       4.146  87.292  62.762  1.00  0.23     0.163 HD
ATOM     44  O   THR B   5       1.391  88.738  62.890  1.00  6.06    -0.271 OA
BRANCH  42  45
ATOM     45  CA  TRP B   6       2.402  86.275  62.129  1.00  0.00     0.181 C 
BRANCH  45  46
ATOM     46  CB  TRP B   6       3.063  85.723  60.865  1.00  0.00     0.075 C 
BRANCH  46  47
ATOM     47  CG  TRP B   6       3.700  86.789  60.027  1.00  0.00    -0.028 A 
ATOM     48  CD2 TRP B   6       5.099  87.086  59.935  1.00  0.00    -0.002 A 
ATOM     49  CE2 TRP B   6       5.240  88.153  59.028  1.00  0.00     0.042 A 
ATOM     50  CE3 TRP B   6       6.244  86.553  60.533  1.00  0.00     0.014 A 
ATOM     51  CZ2 TRP B   6       6.481  88.695  58.705  1.00  0.00     0.030 A 
ATOM     52  NE1 TRP B   6       3.985  88.489  58.589  1.00  0.00    -0.365 N 
ATOM     53  CH2 TRP B   6       7.586  88.155  59.305  1.00  0.00     0.002 A 
ATOM     54  CZ3 TRP B   6       7.476  87.094  60.211  1.00  0.00     0.001 A 
ATOM     55  HE1 TRP B   6       3.777  89.201  57.947  1.00  0.23     0.165 HD
ATOM     56  CD1 TRP B   6       3.067  87.665  59.193  1.00  0.00     0.096 A 
ENDBRANCH  46  47
ENDBRANCH  45  46
BRANCH  45  57
ATOM     57  C   TRP B   6       2.257  85.171  63.172  1.00  0.00     0.241 C 
ATOM     58  O   TRP B   6       2.184  85.441  64.371  1.00  0.00    -0.271 OA
ATOM     59  N   VAL B   7       2.213  83.927  62.703  1.00  6.11    -0.344 N 
ATOM     60  H   VAL B   7       2.275  83.779  61.737  1.00  0.23     0.163 HD
BRANCH  59  61
ATOM     61  CA  VAL B   7       2.074  82.780  63.591  1.00  5.65     0.189 C 
BRANCH  61  62
ATOM     62  CB  VAL B   7       1.146  81.712  62.979  1.00  1.15     0.010 C 
ATOM     63  CG1 VAL B   7       0.512  82.227  61.695  1.00  4.96     0.012 C 
ATOM     64  CG2 VAL B   7       1.908  80.420  62.723  1.00  9.83     0.012 C 
ENDBRANCH  61  62
BRANCH  61  65
ATOM     65  C   VAL B   7       3.430  82.148  63.892  1.00  4.44     0.197 C 
ATOM     66  OXT VAL B   7       4.381  82.395  63.124  1.00  0.00    -0.646 OA
ATOM     67  O   VAL B   7       3.527  81.413  64.897  1.00  0.00    -0.646 OA
ENDBRANCH  61  65
ENDBRANCH  59  61
ENDBRANCH  45  57
ENDBRANCH  42  45
ENDBRANCH  40  41
BRANCH  40  68
ATOM     68  CB  THR B   5       4.105  90.437  62.368  1.00  4.05     0.146 C 
ATOM     69  CG2 THR B   5       5.532  90.062  62.031  1.00  3.72     0.042 C 
BRANCH  68  70
ATOM     70  OG1 THR B   5       3.327  90.259  61.197  1.00  7.31    -0.393 OA
ATOM     71  HG1 THR B   5       3.908  90.135  60.443  1.00  0.23     0.210 HD
ENDBRANCH  68  70
ENDBRANCH  40  68
ENDBRANCH   4  40
TORSDOF 24
ENDMDL
MODEL 3
REMARK VINA RESULT:      -7.0      2.248      3.496
REMARK  24 active torsions:
REMARK  status: ('A' for Active; 'I' for Inactive)
REMARK    1  A    between atoms: N_1  and  CA_2 
REMARK    2  A    between atoms: CA_2  and  C_3 
REMARK       I    between atoms: C_3  and  N_10 
REMARK    3  A    between atoms: CA_7  and  N_10 
REMARK    4  A    between atoms: CA_7  and  C_8 
REMARK       I    between atoms: C_8  and  N_25 
REMARK    5  A    between atoms: CA_12  and  N_25 
REMARK    6  A    between atoms: CA_12  and  CB_14 
REMARK    7  A    between atoms: CA_12  and  C_13 
REMARK       I    between atoms: C_13  and  N_34 
REMARK    8  A    between atoms: CB_14  and  CG_15 
REMARK    9  A    between atoms: CA_28  and  CB_30 
REMARK   10  A    between atoms: CA_28  and  N_34 
REMARK   11  A    between atoms: CA_28  and  C_29 
REMARK       I    between atoms: C_29  and  N_44 
REMARK   12  A    between atoms: CB_30  and  CG_31 
REMARK   13  A    between atoms: CG_31  and  CD_32 
REMARK   14  A    between atoms: CA_38  and  N_44 
REMARK   15  A    between atoms: CA_38  and  C_39 
REMARK   16  A    between atoms: CA_38  and  CB_40 
REMARK       I    between atoms: C_39  and  N_60 
REMARK   17  A    between atoms: CB_40  and  OG1_46 
REMARK   18  A    between atoms: CA_47  and  N_60 
REMARK   19  A    between atoms: CA_47  and  CB_49 
REMARK   20  A    between atoms: CA_47  and  C_48 
REMARK       I    between atoms: C_48  and  N_69 
REMARK   21  A    between atoms: CB_49  and  CG_50 
REMARK   22  A    between atoms: CA_63  and  CB_65 
REMARK   23  A    between atoms: CA_63  and  C_64 
REMARK   24  A    between atoms: CA_63  and  N_69 
ROOT
ATOM      1  C   GLU B   4       3.725  90.027  65.454  1.00  0.00     0.241 C 
ATOM      2  O   GLU B   4       3.102  91.077  65.616  1.00  0.00    -0.271 OA
ATOM      3  H   THR B   5       4.204  88.497  64.260  1.00  0.23     0.163 HD
ATOM      4  N   THR B   5       3.686  89.327  64.324  1.00  7.70    -0.344 N 
ENDROOT
BRANCH   1   5
ATOM      5  CA  GLU B   4       4.593  89.453  66.570  1.00  0.00     0.177 C 
BRANCH   5   6
ATOM      6  CB  GLU B   4       3.715  89.068  67.761  1.00  0.00     0.045 C 
BRANCH   6   7
ATOM      7  CG  GLU B   4       3.694  90.118  68.860  1.00  0.00     0.116 C 
BRANCH   7   8
ATOM      8  CD  GLU B   4       2.293  90.607  69.176  1.00  0.00     0.172 C 
ATOM      9  OE1 GLU B   4       2.127  91.314  70.192  1.00  0.00    -0.648 OA
ATOM     10  OE2 GLU B   4       1.364  90.284  68.407  1.00  0.00    -0.648 OA
ENDBRANCH   7   8
ENDBRANCH   6   7
ENDBRANCH   5   6
BRANCH   5  11
ATOM     11  N   GLU B   4       5.618  90.412  66.977  1.00  0.00    -0.346 N 
ATOM     12  H   GLU B   4       5.433  91.025  67.719  1.00  0.23     0.163 HD
ATOM     13  C   TRP B   3       6.794  90.472  66.359  1.00  0.00     0.241 C 
ATOM     14  O   TRP B   3       7.091  89.734  65.420  1.00  0.00    -0.271 OA
BRANCH  13  15
ATOM     15  CA  TRP B   3       7.782  91.516  66.871  1.00  0.00     0.181 C 
BRANCH  15  16
ATOM     16  N   TRP B   3       9.161  91.071  66.686  1.00  0.00    -0.346 N 
ATOM     17  H   TRP B   3       9.591  91.198  65.813  1.00  0.23     0.163 HD
ATOM     18  C   GLY B   2       9.845  90.491  67.669  1.00  0.00     0.236 C 
ATOM     19  O   GLY B   2       9.374  90.293  68.787  1.00  0.00    -0.272 OA
BRANCH  18  20
ATOM     20  CA  GLY B   2      11.266  90.072  67.344  1.00  0.00     0.225 C 
BRANCH  20  21
ATOM     21  N   GLY B   2      11.605  90.291  65.949  1.00  0.00    -0.350 N 
ATOM     22  C   ALA B   1      12.835  90.683  65.596  1.00  0.00     0.253 C 
ATOM     23  O   ALA B   1      13.718  90.920  66.413  1.00  0.00    -0.271 OA
ATOM     24  H   GLY B   2      10.933  90.134  65.253  1.00  0.23     0.163 HD
BRANCH  22  25
ATOM     25  CA  ALA B   1      13.050  90.892  64.115  1.00  0.00     0.346 C 
ATOM     26  CB  ALA B   1      12.901  92.364  63.695  1.00  0.00     0.056 C 
BRANCH  25  27
ATOM     27  N   ALA B   1      12.098  90.110  63.333  1.00  0.00     0.311 N 
ATOM     28  H   ALA B   1      11.274  90.741  63.031  1.00  0.00     0.359 HD
ENDBRANCH  25  27
ENDBRANCH  22  25
ENDBRANCH  20  21
ENDBRANCH  18  20
ENDBRANCH  15  16
BRANCH  15  29
ATOM     29  CB  TRP B   3       7.537  92.859  66.169  1.00  0.00     0.075 C 
BRANCH  29  30
ATOM     30  CG  TRP B   3       7.742  92.818  64.683  1.00  0.00    -0.028 A 
ATOM     31  CD1 TRP B   3       8.889  92.481  64.024  1.00  0.00     0.096 A 
ATOM     32  NE1 TRP B   3       8.697  92.567  62.665  1.00  0.00    -0.365 N 
ATOM     33  CE2 TRP B   3       7.409  92.969  62.424  1.00  0.00     0.042 A 
ATOM     34  HE1 TRP B   3       9.372  92.372  61.982  1.00  0.23     0.165 HD
ATOM     35  CZ2 TRP B   3       6.750  93.196  61.218  1.00  0.00     0.030 A 
ATOM     36  CD2 TRP B   3       6.779  93.138  63.672  1.00  0.00    -0.002 A 
ATOM     37  CH2 TRP B   3       5.444  93.597  61.277  1.00  0.00     0.002 A 
ATOM     38  CZ3 TRP B   3       4.790  93.776  62.502  1.00  0.00     0.001 A 
ATOM     39  CE3 TRP B   3       5.443  93.551  63.699  1.00  0.00     0.014 A 
ENDBRANCH  29  30
ENDBRANCH  15  29
ENDBRANCH  13  15
ENDBRANCH   5  11
ENDBRANCH   1   5
BRANCH   4  40
ATOM     40  CA  THR B   5       2.892  89.758  63.176  1.00  7.88     0.205 C 
BRANCH  40  41
ATOM     41  C   THR B   5       2.183  88.569  62.537  1.00  7.05     0.243 C 
ATOM     42  N   TRP B   6       2.847  87.418  62.537  1.00  0.00    -0.346 N 
ATOM     43  H   TRP B   6       3.740  87.381  62.937  1.00  0.23     0.163 HD
ATOM     44  O   THR B   5       1.058  88.693  62.052  1.00  6.06    -0.271 OA
BRANCH  42  45
ATOM     45  CA  TRP B   6       2.279  86.209  61.953  1.00  0.00     0.181 C 
BRANCH  45  46
ATOM     46  CB  TRP B   6       3.217  85.650  60.882  1.00  0.00     0.075 C 
BRANCH  46  47
ATOM     47  CG  TRP B   6       3.828  86.717  60.026  1.00  0.00    -0.028 A 
ATOM     48  CD2 TRP B   6       5.211  87.090  59.981  1.00  0.00    -0.002 A 
ATOM     49  CE2 TRP B   6       5.331  88.127  59.036  1.00  0.00     0.042 A 
ATOM     50  CE3 TRP B   6       6.357  86.650  60.648  1.00  0.00     0.014 A 
ATOM     51  CZ2 TRP B   6       6.552  88.727  58.742  1.00  0.00     0.030 A 
ATOM     52  NE1 TRP B   6       4.080  88.372  58.531  1.00  0.00    -0.365 N 
ATOM     53  CH2 TRP B   6       7.659  88.277  59.410  1.00  0.00     0.002 A 
ATOM     54  CZ3 TRP B   6       7.569  87.248  60.354  1.00  0.00     0.001 A 
ATOM     55  HE1 TRP B   6       3.861  89.044  57.852  1.00  0.23     0.165 HD
ATOM     56  CD1 TRP B   6       3.184  87.520  59.131  1.00  0.00     0.096 A 
ENDBRANCH  46  47
ENDBRANCH  45  46
BRANCH  45  57
ATOM     57  C   TRP B   6       2.018  85.156  63.025  1.00  0.00     0.241 C 
ATOM     58  O   TRP B   6       1.773  85.485  64.186  1.00  0.00    -0.271 OA
ATOM     59  N   VAL B   7       2.070  83.889  62.625  1.00  6.11    -0.344 N 
ATOM     60  H   VAL B   7       2.268  83.693  61.686  1.00  0.23     0.163 HD
BRANCH  59  61
ATOM     61  CA  VAL B   7       1.837  82.785  63.547  1.00  5.65     0.189 C 
BRANCH  61  62
ATOM     62  CB  VAL B   7       1.012  81.667  62.880  1.00  1.15     0.010 C 
ATOM     63  CG1 VAL B   7       0.429  82.149  61.560  1.00  4.96     0.012 C 
ATOM     64  CG2 VAL B   7       1.862  80.423  62.673  1.00  9.83     0.012 C 
ENDBRANCH  61  62
BRANCH  61  65
ATOM     65  C   VAL B   7       3.153  82.201  64.051  1.00  4.44     0.197 C 
ATOM     66  OXT VAL B   7       3.151  81.588  65.138  1.00  0.00    -0.646 OA
ATOM     67  O   VAL B   7       4.175  82.362  63.352  1.00  0.00    -0.646 OA
ENDBRANCH  61  65
ENDBRANCH  59  61
ENDBRANCH  45  57
ENDBRANCH  42  45
ENDBRANCH  40  41
BRANCH  40  68
ATOM     68  CB  THR B   5       3.784  90.449  62.144  1.00  4.05     0.146 C 
ATOM     69  CG2 THR B   5       5.215  89.956  62.164  1.00  3.72     0.042 C 
BRANCH  68  70
ATOM     70  OG1 THR B   5       3.281  90.252  60.835  1.00  7.31    -0.393 OA
ATOM     71  HG1 THR B   5       3.760  89.536  60.412  1.00  0.23     0.210 HD
ENDBRANCH  68  70
ENDBRANCH  40  68
ENDBRANCH   4  40
TORSDOF 24
ENDMDL
MODEL 4
REMARK VINA RESULT:      -5.9      2.293      3.887
REMARK  24 active torsions:
REMARK  status: ('A' for Active; 'I' for Inactive)
REMARK    1  A    between atoms: N_1  and  CA_2 
REMARK    2  A    between atoms: CA_2  and  C_3 
REMARK       I    between atoms: C_3  and  N_10 
REMARK    3  A    between atoms: CA_7  and  N_10 
REMARK    4  A    between atoms: CA_7  and  C_8 
REMARK       I    between atoms: C_8  and  N_25 
REMARK    5  A    between atoms: CA_12  and  N_25 
REMARK    6  A    between atoms: CA_12  and  CB_14 
REMARK    7  A    between atoms: CA_12  and  C_13 
REMARK       I    between atoms: C_13  and  N_34 
REMARK    8  A    between atoms: CB_14  and  CG_15 
REMARK    9  A    between atoms: CA_28  and  CB_30 
REMARK   10  A    between atoms: CA_28  and  N_34 
REMARK   11  A    between atoms: CA_28  and  C_29 
REMARK       I    between atoms: C_29  and  N_44 
REMARK   12  A    between atoms: CB_30  and  CG_31 
REMARK   13  A    between atoms: CG_31  and  CD_32 
REMARK   14  A    between atoms: CA_38  and  N_44 
REMARK   15  A    between atoms: CA_38  and  C_39 
REMARK   16  A    between atoms: CA_38  and  CB_40 
REMARK       I    between atoms: C_39  and  N_60 
REMARK   17  A    between atoms: CB_40  and  OG1_46 
REMARK   18  A    between atoms: CA_47  and  N_60 
REMARK   19  A    between atoms: CA_47  and  CB_49 
REMARK   20  A    between atoms: CA_47  and  C_48 
REMARK       I    between atoms: C_48  and  N_69 
REMARK   21  A    between atoms: CB_49  and  CG_50 
REMARK   22  A    between atoms: CA_63  and  CB_65 
REMARK   23  A    between atoms: CA_63  and  C_64 
REMARK   24  A    between atoms: CA_63  and  N_69 
ROOT
ATOM      1  C   GLU B   4       3.664  90.003  62.777  1.00  0.00     0.241 C 
ATOM      2  O   GLU B   4       4.584  90.552  62.169  1.00  0.00    -0.271 OA
ATOM      3  H   THR B   5       1.922  89.026  62.712  1.00  0.23     0.163 HD
ATOM      4  N   THR B   5       2.623  89.445  62.168  1.00  7.70    -0.344 N 
ENDROOT
BRANCH   1   5
ATOM      5  CA  GLU B   4       3.667  89.936  64.302  1.00  0.00     0.177 C 
BRANCH   5   6
ATOM      6  CB  GLU B   4       2.261  90.219  64.833  1.00  0.00     0.045 C 
BRANCH   6   7
ATOM      7  CG  GLU B   4       2.231  91.261  65.939  1.00  0.00     0.116 C 
BRANCH   7   8
ATOM      8  CD  GLU B   4       2.205  90.645  67.324  1.00  0.00     0.172 C 
ATOM      9  OE1 GLU B   4       1.314  91.009  68.119  1.00  0.00    -0.648 OA
ATOM     10  OE2 GLU B   4       3.077  89.798  67.613  1.00  0.00    -0.648 OA
ENDBRANCH   7   8
ENDBRANCH   6   7
ENDBRANCH   5   6
BRANCH   5  11
ATOM     11  N   GLU B   4       4.627  90.885  64.863  1.00  0.00    -0.346 N 
ATOM     12  H   GLU B   4       4.432  91.844  64.821  1.00  0.23     0.163 HD
ATOM     13  C   TRP B   3       5.759  90.471  65.425  1.00  0.00     0.241 C 
ATOM     14  O   TRP B   3       6.065  89.283  65.509  1.00  0.00    -0.271 OA
BRANCH  13  15
ATOM     15  CA  TRP B   3       6.684  91.555  65.973  1.00  0.00     0.181 C 
BRANCH  15  16
ATOM     16  N   TRP B   3       8.086  91.182  65.809  1.00  0.00    -0.346 N 
ATOM     17  H   TRP B   3       8.479  91.181  64.911  1.00  0.23     0.163 HD
ATOM     18  C   GLY B   2       8.841  90.834  66.848  1.00  0.00     0.236 C 
ATOM     19  O   GLY B   2       8.420  90.805  68.003  1.00  0.00    -0.272 OA
BRANCH  18  20
ATOM     20  CA  GLY B   2      10.280  90.465  66.541  1.00  0.00     0.225 C 
BRANCH  20  21
ATOM     21  N   GLY B   2      10.983  91.512  65.822  1.00  0.00    -0.350 N 
ATOM     22  C   ALA B   1      11.394  91.323  64.563  1.00  0.00     0.253 C 
ATOM     23  O   ALA B   1      11.247  90.261  63.967  1.00  0.00    -0.271 OA
ATOM     24  H   GLY B   2      11.145  92.376  66.255  1.00  0.23     0.163 HD
BRANCH  22  25
ATOM     25  CA  ALA B   1      12.130  92.485  63.938  1.00  0.00     0.346 C 
ATOM     26  CB  ALA B   1      13.575  92.618  64.449  1.00  0.00     0.056 C 
BRANCH  25  27
ATOM     27  N   ALA B   1      11.446  93.745  64.213  1.00  0.00     0.311 N 
ATOM     28  H   ALA B   1      11.277  94.273  63.286  1.00  0.00     0.359 HD
ENDBRANCH  25  27
ENDBRANCH  22  25
ENDBRANCH  20  21
ENDBRANCH  18  20
ENDBRANCH  15  16
BRANCH  15  29
ATOM     29  CB  TRP B   3       6.386  92.895  65.286  1.00  0.00     0.075 C 
BRANCH  29  30
ATOM     30  CG  TRP B   3       6.848  92.966  63.859  1.00  0.00    -0.028 A 
ATOM     31  CD1 TRP B   3       8.077  92.618  63.378  1.00  0.00     0.096 A 
ATOM     32  NE1 TRP B   3       8.131  92.829  62.020  1.00  0.00    -0.365 N 
ATOM     33  CE2 TRP B   3       6.924  93.324  61.601  1.00  0.00     0.042 A 
ATOM     34  HE1 TRP B   3       8.906  92.652  61.448  1.00  0.23     0.165 HD
ATOM     35  CZ2 TRP B   3       6.498  93.689  60.326  1.00  0.00     0.030 A 
ATOM     36  CD2 TRP B   3       6.092  93.426  62.732  1.00  0.00    -0.002 A 
ATOM     37  CH2 TRP B   3       5.220  94.160  60.196  1.00  0.00     0.002 A 
ATOM     38  CZ3 TRP B   3       4.370  94.274  61.302  1.00  0.00     0.001 A 
ATOM     39  CE3 TRP B   3       4.791  93.913  62.568  1.00  0.00     0.014 A 
ENDBRANCH  29  30
ENDBRANCH  15  29
ENDBRANCH  13  15
ENDBRANCH   5  11
ENDBRANCH   1   5
BRANCH   4  40
ATOM     40  CA  THR B   5       2.490  89.440  60.714  1.00  7.88     0.205 C 
BRANCH  40  41
ATOM     41  C   THR B   5       2.402  88.011  60.188  1.00  7.05     0.243 C 
ATOM     42  N   TRP B   6       2.961  87.071  60.942  1.00  0.00    -0.346 N 
ATOM     43  H   TRP B   6       3.395  87.326  61.782  1.00  0.23     0.163 HD
ATOM     44  O   THR B   5       1.841  87.766  59.120  1.00  6.06    -0.271 OA
BRANCH  42  45
ATOM     45  CA  TRP B   6       2.948  85.668  60.547  1.00  0.00     0.181 C 
BRANCH  45  46
ATOM     46  CB  TRP B   6       4.337  85.055  60.732  1.00  0.00     0.075 C 
BRANCH  46  47
ATOM     47  CG  TRP B   6       5.423  85.863  60.090  1.00  0.00    -0.028 A 
ATOM     48  CD2 TRP B   6       6.243  86.852  60.724  1.00  0.00    -0.002 A 
ATOM     49  CE2 TRP B   6       7.128  87.347  59.747  1.00  0.00     0.042 A 
ATOM     50  CE3 TRP B   6       6.314  87.367  62.021  1.00  0.00     0.014 A 
ATOM     51  CZ2 TRP B   6       8.072  88.331  60.029  1.00  0.00     0.030 A 
ATOM     52  NE1 TRP B   6       6.858  86.690  58.575  1.00  0.00    -0.365 N 
ATOM     53  CH2 TRP B   6       8.120  88.818  61.307  1.00  0.00     0.002 A 
ATOM     54  CZ3 TRP B   6       7.252  88.345  62.299  1.00  0.00     0.001 A 
ATOM     55  HE1 TRP B   6       7.321  86.831  57.722  1.00  0.23     0.165 HD
ATOM     56  CD1 TRP B   6       5.833  85.800  58.790  1.00  0.00     0.096 A 
ENDBRANCH  46  47
ENDBRANCH  45  46
BRANCH  45  57
ATOM     57  C   TRP B   6       1.916  84.885  61.353  1.00  0.00     0.241 C 
ATOM     58  O   TRP B   6       0.721  84.932  61.061  1.00  0.00    -0.271 OA
ATOM     59  N   VAL B   7       2.390  84.162  62.364  1.00  6.11    -0.344 N 
ATOM     60  H   VAL B   7       3.353  84.166  62.543  1.00  0.23     0.163 HD
BRANCH  59  61
ATOM     61  CA  VAL B   7       1.513  83.365  63.211  1.00  5.65     0.189 C 
BRANCH  61  62
ATOM     62  CB  VAL B   7       2.195  82.051  63.639  1.00  1.15     0.010 C 
ATOM     63  CG1 VAL B   7       1.570  80.865  62.919  1.00  4.96     0.012 C 
ATOM     64  CG2 VAL B   7       3.693  82.113  63.378  1.00  9.83     0.012 C 
ENDBRANCH  61  62
BRANCH  61  65
ATOM     65  C   VAL B   7       1.097  84.140  64.458  1.00  4.44     0.197 C 
ATOM     66  OXT VAL B   7      -0.062  84.599  64.510  1.00  0.00    -0.646 OA
ATOM     67  O   VAL B   7       1.936  84.279  65.372  1.00  0.00    -0.646 OA
ENDBRANCH  61  65
ENDBRANCH  59  61
ENDBRANCH  45  57
ENDBRANCH  42  45
ENDBRANCH  40  41
BRANCH  40  68
ATOM     68  CB  THR B   5       3.676  90.160  60.071  1.00  4.05     0.146 C 
ATOM     69  CG2 THR B   5       4.296  89.387  58.927  1.00  3.72     0.042 C 
BRANCH  68  70
ATOM     70  OG1 THR B   5       3.280  91.425  59.569  1.00  7.31    -0.393 OA
ATOM     71  HG1 THR B   5       3.186  92.043  60.297  1.00  0.23     0.210 HD
ENDBRANCH  68  70
ENDBRANCH  40  68
ENDBRANCH   4  40
TORSDOF 24
ENDMDL
MODEL 5
REMARK VINA RESULT:      -5.8      2.323      4.608
REMARK  24 active torsions:
REMARK  status: ('A' for Active; 'I' for Inactive)
REMARK    1  A    between atoms: N_1  and  CA_2 
REMARK    2  A    between atoms: CA_2  and  C_3 
REMARK       I    between atoms: C_3  and  N_10 
REMARK    3  A    between atoms: CA_7  and  N_10 
REMARK    4  A    between atoms: CA_7  and  C_8 
REMARK       I    between atoms: C_8  and  N_25 
REMARK    5  A    between atoms: CA_12  and  N_25 
REMARK    6  A    between atoms: CA_12  and  CB_14 
REMARK    7  A    between atoms: CA_12  and  C_13 
REMARK       I    between atoms: C_13  and  N_34 
REMARK    8  A    between atoms: CB_14  and  CG_15 
REMARK    9  A    between atoms: CA_28  and  CB_30 
REMARK   10  A    between atoms: CA_28  and  N_34 
REMARK   11  A    between atoms: CA_28  and  C_29 
REMARK       I    between atoms: C_29  and  N_44 
REMARK   12  A    between atoms: CB_30  and  CG_31 
REMARK   13  A    between atoms: CG_31  and  CD_32 
REMARK   14  A    between atoms: CA_38  and  N_44 
REMARK   15  A    between atoms: CA_38  and  C_39 
REMARK   16  A    between atoms: CA_38  and  CB_40 
REMARK       I    between atoms: C_39  and  N_60 
REMARK   17  A    between atoms: CB_40  and  OG1_46 
REMARK   18  A    between atoms: CA_47  and  N_60 
REMARK   19  A    between atoms: CA_47  and  CB_49 
REMARK   20  A    between atoms: CA_47  and  C_48 
REMARK       I    between atoms: C_48  and  N_69 
REMARK   21  A    between atoms: CB_49  and  CG_50 
REMARK   22  A    between atoms: CA_63  and  CB_65 
REMARK   23  A    between atoms: CA_63  and  C_64 
REMARK   24  A    between atoms: CA_63  and  N_69 
ROOT
ATOM      1  C   GLU B   4       5.337  90.192  63.464  1.00  0.00     0.241 C 
ATOM      2  O   GLU B   4       5.831  89.093  63.207  1.00  0.00    -0.271 OA
ATOM      3  H   THR B   5       4.394  91.830  62.814  1.00  0.23     0.163 HD
ATOM      4  N   THR B   5       4.767  90.964  62.544  1.00  7.70    -0.344 N 
ENDROOT
BRANCH   1   5
ATOM      5  CA  GLU B   4       5.357  90.744  64.886  1.00  0.00     0.177 C 
BRANCH   5   6
ATOM      6  CB  GLU B   4       4.150  91.657  65.102  1.00  0.00     0.045 C 
BRANCH   6   7
ATOM      7  CG  GLU B   4       2.915  90.919  65.593  1.00  0.00     0.116 C 
BRANCH   7   8
ATOM      8  CD  GLU B   4       2.753  90.985  67.100  1.00  0.00     0.172 C 
ATOM      9  OE1 GLU B   4       1.708  91.488  67.563  1.00  0.00    -0.648 OA
ATOM     10  OE2 GLU B   4       3.671  90.534  67.816  1.00  0.00    -0.648 OA
ENDBRANCH   7   8
ENDBRANCH   6   7
ENDBRANCH   5   6
BRANCH   5  11
ATOM     11  N   GLU B   4       6.600  91.468  65.146  1.00  0.00    -0.346 N 
ATOM     12  H   GLU B   4       6.672  92.408  64.879  1.00  0.23     0.163 HD
ATOM     13  C   TRP B   3       7.636  90.875  65.734  1.00  0.00     0.241 C 
ATOM     14  O   TRP B   3       7.613  89.699  66.093  1.00  0.00    -0.271 OA
BRANCH  13  15
ATOM     15  CA  TRP B   3       8.879  91.732  65.950  1.00  0.00     0.181 C 
BRANCH  15  16
ATOM     16  N   TRP B   3      10.017  91.205  65.201  1.00  0.00    -0.346 N 
ATOM     17  H   TRP B   3       9.976  91.184  64.221  1.00  0.23     0.163 HD
ATOM     18  C   GLY B   2      11.105  90.747  65.815  1.00  0.00     0.236 C 
ATOM     19  O   GLY B   2      11.230  90.736  67.038  1.00  0.00    -0.272 OA
BRANCH  18  20
ATOM     20  CA  GLY B   2      12.212  90.224  64.921  1.00  0.00     0.225 C 
BRANCH  20  21
ATOM     21  N   GLY B   2      13.332  91.143  64.823  1.00  0.00    -0.350 N 
ATOM     22  C   ALA B   1      13.672  91.688  63.649  1.00  0.00     0.253 C 
ATOM     23  O   ALA B   1      13.101  91.415  62.598  1.00  0.00    -0.271 OA
ATOM     24  H   GLY B   2      13.837  91.384  65.627  1.00  0.23     0.163 HD
BRANCH  22  25
ATOM     25  CA  ALA B   1      14.867  92.612  63.683  1.00  0.00     0.346 C 
ATOM     26  CB  ALA B   1      15.682  92.578  62.379  1.00  0.00     0.056 C 
BRANCH  25  27
ATOM     27  N   ALA B   1      15.767  92.261  64.777  1.00  0.00     0.311 N 
ATOM     28  H   ALA B   1      16.078  91.232  64.672  1.00  0.00     0.359 HD
ENDBRANCH  25  27
ENDBRANCH  22  25
ENDBRANCH  20  21
ENDBRANCH  18  20
ENDBRANCH  15  16
BRANCH  15  29
ATOM     29  CB  TRP B   3       8.588  93.188  65.558  1.00  0.00     0.075 C 
BRANCH  29  30
ATOM     30  CG  TRP B   3       9.220  93.611  64.265  1.00  0.00    -0.028 A 
ATOM     31  CD1 TRP B   3       8.690  93.481  63.013  1.00  0.00     0.096 A 
ATOM     32  NE1 TRP B   3       9.566  93.976  62.075  1.00  0.00    -0.365 N 
ATOM     33  CE2 TRP B   3      10.688  94.435  62.715  1.00  0.00     0.042 A 
ATOM     34  HE1 TRP B   3       9.411  93.996  61.108  1.00  0.23     0.165 HD
ATOM     35  CZ2 TRP B   3      11.841  95.020  62.196  1.00  0.00     0.030 A 
ATOM     36  CD2 TRP B   3      10.506  94.220  64.094  1.00  0.00    -0.002 A 
ATOM     37  CH2 TRP B   3      12.816  95.388  63.081  1.00  0.00     0.002 A 
ATOM     38  CZ3 TRP B   3      12.666  95.186  64.458  1.00  0.00     0.001 A 
ATOM     39  CE3 TRP B   3      11.522  94.607  64.974  1.00  0.00     0.014 A 
ENDBRANCH  29  30
ENDBRANCH  15  29
ENDBRANCH  13  15
ENDBRANCH   5  11
ENDBRANCH   1   5
BRANCH   4  40
ATOM     40  CA  THR B   5       4.681  90.561  61.143  1.00  7.88     0.205 C 
BRANCH  40  41
ATOM     41  C   THR B   5       3.505  89.615  60.927  1.00  7.05     0.243 C 
ATOM     42  N   TRP B   6       3.357  88.646  61.824  1.00  0.00    -0.346 N 
ATOM     43  H   TRP B   6       3.991  88.582  62.568  1.00  0.23     0.163 HD
ATOM     44  O   THR B   5       2.750  89.758  59.965  1.00  6.06    -0.271 OA
BRANCH  42  45
ATOM     45  CA  TRP B   6       2.275  87.675  61.727  1.00  0.00     0.181 C 
BRANCH  45  46
ATOM     46  CB  TRP B   6       2.843  86.271  61.518  1.00  0.00     0.075 C 
BRANCH  46  47
ATOM     47  CG  TRP B   6       3.452  86.083  60.162  1.00  0.00    -0.028 A 
ATOM     48  CD2 TRP B   6       4.847  85.956  59.860  1.00  0.00    -0.002 A 
ATOM     49  CE2 TRP B   6       4.958  85.791  58.466  1.00  0.00     0.042 A 
ATOM     50  CE3 TRP B   6       6.011  85.967  60.633  1.00  0.00     0.014 A 
ATOM     51  CZ2 TRP B   6       6.187  85.637  57.832  1.00  0.00     0.030 A 
ATOM     52  NE1 TRP B   6       3.690  85.817  57.946  1.00  0.00    -0.365 N 
ATOM     53  CH2 TRP B   6       7.312  85.651  58.611  1.00  0.00     0.002 A 
ATOM     54  CZ3 TRP B   6       7.232  85.813  59.999  1.00  0.00     0.001 A 
ATOM     55  HE1 TRP B   6       3.461  85.724  56.997  1.00  0.23     0.165 HD
ATOM     56  CD1 TRP B   6       2.792  85.993  58.971  1.00  0.00     0.096 A 
ENDBRANCH  46  47
ENDBRANCH  45  46
BRANCH  45  57
ATOM     57  C   TRP B   6       1.400  87.707  62.976  1.00  0.00     0.241 C 
ATOM     58  O   TRP B   6       0.580  88.610  63.149  1.00  0.00    -0.271 OA
ATOM     59  N   VAL B   7       1.579  86.713  63.841  1.00  6.11    -0.344 N 
ATOM     60  H   VAL B   7       2.247  86.024  63.644  1.00  0.23     0.163 HD
BRANCH  59  61
ATOM     61  CA  VAL B   7       0.806  86.622  65.073  1.00  5.65     0.189 C 
BRANCH  61  62
ATOM     62  CB  VAL B   7       0.679  85.160  65.545  1.00  1.15     0.010 C 
ATOM     63  CG1 VAL B   7       1.853  84.333  65.039  1.00  4.96     0.012 C 
ATOM     64  CG2 VAL B   7       0.583  85.091  67.061  1.00  9.83     0.012 C 
ENDBRANCH  61  62
BRANCH  61  65
ATOM     65  C   VAL B   7       1.442  87.451  66.185  1.00  4.44     0.197 C 
ATOM     66  OXT VAL B   7       0.697  88.150  66.902  1.00  0.00    -0.646 OA
ATOM     67  O   VAL B   7       2.681  87.392  66.329  1.00  0.00    -0.646 OA
ENDBRANCH  61  65
ENDBRANCH  59  61
ENDBRANCH  45  57
ENDBRANCH  42  45
ENDBRANCH  40  41
BRANCH  40  68
ATOM     68  CB  THR B   5       5.982  89.886  60.705  1.00  4.05     0.146 C 
ATOM     69  CG2 THR B   5       5.969  89.447  59.257  1.00  3.72     0.042 C 
BRANCH  68  70
ATOM     70  OG1 THR B   5       7.083  90.760  60.878  1.00  7.31    -0.393 OA
ATOM     71  HG1 THR B   5       7.876  90.351  60.525  1.00  0.23     0.210 HD
ENDBRANCH  68  70
ENDBRANCH  40  68
ENDBRANCH   4  40
TORSDOF 24
ENDMDL
MODEL 6
REMARK VINA RESULT:      -5.2      2.874      6.500
REMARK  24 active torsions:
REMARK  status: ('A' for Active; 'I' for Inactive)
REMARK    1  A    between atoms: N_1  and  CA_2 
REMARK    2  A    between atoms: CA_2  and  C_3 
REMARK       I    between atoms: C_3  and  N_10 
REMARK    3  A    between atoms: CA_7  and  N_10 
REMARK    4  A    between atoms: CA_7  and  C_8 
REMARK       I    between atoms: C_8  and  N_25 
REMARK    5  A    between atoms: CA_12  and  N_25 
REMARK    6  A    between atoms: CA_12  and  CB_14 
REMARK    7  A    between atoms: CA_12  and  C_13 
REMARK       I    between atoms: C_13  and  N_34 
REMARK    8  A    between atoms: CB_14  and  CG_15 
REMARK    9  A    between atoms: CA_28  and  CB_30 
REMARK   10  A    between atoms: CA_28  and  N_34 
REMARK   11  A    between atoms: CA_28  and  C_29 
REMARK       I    between atoms: C_29  and  N_44 
REMARK   12  A    between atoms: CB_30  and  CG_31 
REMARK   13  A    between atoms: CG_31  and  CD_32 
REMARK   14  A    between atoms: CA_38  and  N_44 
REMARK   15  A    between atoms: CA_38  and  C_39 
REMARK   16  A    between atoms: CA_38  and  CB_40 
REMARK       I    between atoms: C_39  and  N_60 
REMARK   17  A    between atoms: CB_40  and  OG1_46 
REMARK   18  A    between atoms: CA_47  and  N_60 
REMARK   19  A    between atoms: CA_47  and  CB_49 
REMARK   20  A    between atoms: CA_47  and  C_48 
REMARK       I    between atoms: C_48  and  N_69 
REMARK   21  A    between atoms: CB_49  and  CG_50 
REMARK   22  A    between atoms: CA_63  and  CB_65 
REMARK   23  A    between atoms: CA_63  and  C_64 
REMARK   24  A    between atoms: CA_63  and  N_69 
ROOT
ATOM      1  C   GLU B   4       7.935  90.521  62.961  1.00  0.00     0.241 C 
ATOM      2  O   GLU B   4       7.566  90.308  61.806  1.00  0.00    -0.271 OA
ATOM      3  H   THR B   5       7.891  91.701  64.574  1.00  0.23     0.163 HD
ATOM      4  N   THR B   5       7.559  91.590  63.658  1.00  7.70    -0.344 N 
ENDROOT
BRANCH   1   5
ATOM      5  CA  GLU B   4       8.871  89.550  63.674  1.00  0.00     0.177 C 
BRANCH   5   6
ATOM      6  CB  GLU B   4       8.103  88.287  64.067  1.00  0.00     0.045 C 
BRANCH   6   7
ATOM      7  CG  GLU B   4       8.658  87.603  65.306  1.00  0.00     0.116 C 
BRANCH   7   8
ATOM      8  CD  GLU B   4       7.748  87.745  66.511  1.00  0.00     0.172 C 
ATOM      9  OE1 GLU B   4       6.989  88.734  66.569  1.00  0.00    -0.648 OA
ATOM     10  OE2 GLU B   4       7.795  86.865  67.396  1.00  0.00    -0.648 OA
ENDBRANCH   7   8
ENDBRANCH   6   7
ENDBRANCH   5   6
BRANCH   5  11
ATOM     11  N   GLU B   4       9.470  90.173  64.852  1.00  0.00    -0.346 N 
ATOM     12  H   GLU B   4       8.887  90.525  65.556  1.00  0.23     0.163 HD
ATOM     13  C   TRP B   3      10.790  90.276  64.985  1.00  0.00     0.241 C 
ATOM     14  O   TRP B   3      11.578  89.857  64.138  1.00  0.00    -0.271 OA
BRANCH  13  15
ATOM     15  CA  TRP B   3      11.297  90.948  66.257  1.00  0.00     0.181 C 
BRANCH  15  16
ATOM     16  N   TRP B   3      10.823  90.247  67.447  1.00  0.00    -0.346 N 
ATOM     17  H   TRP B   3      11.395  89.564  67.859  1.00  0.23     0.163 HD
ATOM     18  C   GLY B   2       9.633  90.505  67.982  1.00  0.00     0.236 C 
ATOM     19  O   GLY B   2       8.858  91.341  67.520  1.00  0.00    -0.272 OA
BRANCH  18  20
ATOM     20  CA  GLY B   2       9.260  89.703  69.214  1.00  0.00     0.225 C 
BRANCH  20  21
ATOM     21  N   GLY B   2       7.828  89.501  69.335  1.00  0.00    -0.350 N 
ATOM     22  C   ALA B   1       7.324  88.716  70.295  1.00  0.00     0.253 C 
ATOM     23  O   ALA B   1       8.029  88.097  71.086  1.00  0.00    -0.271 OA
ATOM     24  H   GLY B   2       7.217  89.955  68.718  1.00  0.23     0.163 HD
BRANCH  22  25
ATOM     25  CA  ALA B   1       5.820  88.575  70.297  1.00  0.00     0.346 C 
ATOM     26  CB  ALA B   1       5.360  87.109  70.368  1.00  0.00     0.056 C 
BRANCH  25  27
ATOM     27  N   ALA B   1       5.239  89.164  69.095  1.00  0.00     0.311 N 
ATOM     28  H   ALA B   1       5.820  88.872  68.233  1.00  0.00     0.359 HD
ENDBRANCH  25  27
ENDBRANCH  22  25
ENDBRANCH  20  21
ENDBRANCH  18  20
ENDBRANCH  15  16
BRANCH  15  29
ATOM     29  CB  TRP B   3      12.830  91.024  66.235  1.00  0.00     0.075 C 
BRANCH  29  30
ATOM     30  CG  TRP B   3      13.382  91.937  65.180  1.00  0.00    -0.028 A 
ATOM     31  CD1 TRP B   3      14.607  91.852  64.582  1.00  0.00     0.096 A 
ATOM     32  NE1 TRP B   3      14.759  92.871  63.670  1.00  0.00    -0.365 N 
ATOM     33  CE2 TRP B   3      13.624  93.638  63.668  1.00  0.00     0.042 A 
ATOM     34  HE1 TRP B   3      15.552  93.020  63.113  1.00  0.23     0.165 HD
ATOM     35  CZ2 TRP B   3      13.307  94.769  62.920  1.00  0.00     0.030 A 
ATOM     36  CD2 TRP B   3      12.735  93.081  64.608  1.00  0.00    -0.002 A 
ATOM     37  CH2 TRP B   3      12.081  95.341  63.126  1.00  0.00     0.002 A 
ATOM     38  CZ3 TRP B   3      11.177  94.811  64.054  1.00  0.00     0.001 A 
ATOM     39  CE3 TRP B   3      11.490  93.689  64.797  1.00  0.00     0.014 A 
ENDBRANCH  29  30
ENDBRANCH  15  29
ENDBRANCH  13  15
ENDBRANCH   5  11
ENDBRANCH   1   5
BRANCH   4  40
ATOM     40  CA  THR B   5       6.669  92.602  63.098  1.00  7.88     0.205 C 
BRANCH  40  41
ATOM     41  C   THR B   5       5.210  92.205  63.297  1.00  7.05     0.243 C 
ATOM     42  N   TRP B   6       4.850  91.023  62.809  1.00  0.00    -0.346 N 
ATOM     43  H   TRP B   6       5.519  90.469  62.354  1.00  0.23     0.163 HD
ATOM     44  O   THR B   5       4.426  92.955  63.879  1.00  6.06    -0.271 OA
BRANCH  42  45
ATOM     45  CA  TRP B   6       3.485  90.529  62.931  1.00  0.00     0.181 C 
BRANCH  45  46
ATOM     46  CB  TRP B   6       3.160  89.583  61.774  1.00  0.00     0.075 C 
BRANCH  46  47
ATOM     47  CG  TRP B   6       4.250  88.592  61.506  1.00  0.00    -0.028 A 
ATOM     48  CD2 TRP B   6       5.149  88.588  60.391  1.00  0.00    -0.002 A 
ATOM     49  CE2 TRP B   6       6.007  87.483  60.551  1.00  0.00     0.042 A 
ATOM     50  CE3 TRP B   6       5.311  89.410  59.273  1.00  0.00     0.014 A 
ATOM     51  CZ2 TRP B   6       7.011  87.183  59.635  1.00  0.00     0.030 A 
ATOM     52  NE1 TRP B   6       5.646  86.846  61.710  1.00  0.00    -0.365 N 
ATOM     53  CH2 TRP B   6       7.148  88.004  58.549  1.00  0.00     0.002 A 
ATOM     54  CZ3 TRP B   6       6.309  89.109  58.364  1.00  0.00     0.001 A 
ATOM     55  HE1 TRP B   6       6.072  86.042  62.075  1.00  0.23     0.165 HD
ATOM     56  CD1 TRP B   6       4.590  87.518  62.277  1.00  0.00     0.096 A 
ENDBRANCH  46  47
ENDBRANCH  45  46
BRANCH  45  57
ATOM     57  C   TRP B   6       3.279  89.819  64.265  1.00  0.00     0.241 C 
ATOM     58  O   TRP B   6       4.239  89.395  64.909  1.00  0.00    -0.271 OA
ATOM     59  N   VAL B   7       2.019  89.698  64.674  1.00  6.11    -0.344 N 
ATOM     60  H   VAL B   7       1.300  90.058  64.116  1.00  0.23     0.163 HD
BRANCH  59  61
ATOM     61  CA  VAL B   7       1.683  89.043  65.932  1.00  5.65     0.189 C 
BRANCH  61  62
ATOM     62  CB  VAL B   7       2.529  87.772  66.142  1.00  1.15     0.010 C 
ATOM     63  CG1 VAL B   7       2.429  87.297  67.585  1.00  4.96     0.012 C 
ATOM     64  CG2 VAL B   7       2.097  86.674  65.182  1.00  9.83     0.012 C 
ENDBRANCH  61  62
BRANCH  61  65
ATOM     65  C   VAL B   7       1.892  89.983  67.116  1.00  4.44     0.197 C 
ATOM     66  OXT VAL B   7       0.887  90.389  67.734  1.00  0.00    -0.646 OA
ATOM     67  O   VAL B   7       3.062  90.304  67.413  1.00  0.00    -0.646 OA
ENDBRANCH  61  65
ENDBRANCH  59  61
ENDBRANCH  45  57
ENDBRANCH  42  45
ENDBRANCH  40  41
BRANCH  40  68
ATOM     68  CB  THR B   5       6.957  92.798  61.609  1.00  4.05     0.146 C 
ATOM     69  CG2 THR B   5       5.910  93.629  60.901  1.00  3.72     0.042 C 
BRANCH  68  70
ATOM     70  OG1 THR B   5       8.209  93.434  61.421  1.00  7.31    -0.393 OA
ATOM     71  HG1 THR B   5       8.070  94.365  61.234  1.00  0.23     0.210 HD
ENDBRANCH  68  70
ENDBRANCH  40  68
ENDBRANCH   4  40
TORSDOF 24
ENDMDL
MODEL 7
REMARK VINA RESULT:      -5.1      2.203      5.923
REMARK  24 active torsions:
REMARK  status: ('A' for Active; 'I' for Inactive)
REMARK    1  A    between atoms: N_1  and  CA_2 
REMARK    2  A    between atoms: CA_2  and  C_3 
REMARK       I    between atoms: C_3  and  N_10 
REMARK    3  A    between atoms: CA_7  and  N_10 
REMARK    4  A    between atoms: CA_7  and  C_8 
REMARK       I    between atoms: C_8  and  N_25 
REMARK    5  A    between atoms: CA_12  and  N_25 
REMARK    6  A    between atoms: CA_12  and  CB_14 
REMARK    7  A    between atoms: CA_12  and  C_13 
REMARK       I    between atoms: C_13  and  N_34 
REMARK    8  A    between atoms: CB_14  and  CG_15 
REMARK    9  A    between atoms: CA_28  and  CB_30 
REMARK   10  A    between atoms: CA_28  and  N_34 
REMARK   11  A    between atoms: CA_28  and  C_29 
REMARK       I    between atoms: C_29  and  N_44 
REMARK   12  A    between atoms: CB_30  and  CG_31 
REMARK   13  A    between atoms: CG_31  and  CD_32 
REMARK   14  A    between atoms: CA_38  and  N_44 
REMARK   15  A    between atoms: CA_38  and  C_39 
REMARK   16  A    between atoms: CA_38  and  CB_40 
REMARK       I    between atoms: C_39  and  N_60 
REMARK   17  A    between atoms: CB_40  and  OG1_46 
REMARK   18  A    between atoms: CA_47  and  N_60 
REMARK   19  A    between atoms: CA_47  and  CB_49 
REMARK   20  A    between atoms: CA_47  and  C_48 
REMARK       I    between atoms: C_48  and  N_69 
REMARK   21  A    between atoms: CB_49  and  CG_50 
REMARK   22  A    between atoms: CA_63  and  CB_65 
REMARK   23  A    between atoms: CA_63  and  C_64 
REMARK   24  A    between atoms: CA_63  and  N_69 
ROOT
ATOM      1  C   GLU B   4       7.614  90.226  62.676  1.00  0.00     0.241 C 
ATOM      2  O   GLU B   4       7.382  90.051  61.479  1.00  0.00    -0.271 OA
ATOM      3  H   THR B   5       7.243  91.253  64.350  1.00  0.23     0.163 HD
ATOM      4  N   THR B   5       7.011  91.164  63.402  1.00  7.70    -0.344 N 
ENDROOT
BRANCH   1   5
ATOM      5  CA  GLU B   4       8.634  89.361  63.409  1.00  0.00     0.177 C 
BRANCH   5   6
ATOM      6  CB  GLU B   4       7.967  88.070  63.886  1.00  0.00     0.045 C 
BRANCH   6   7
ATOM      7  CG  GLU B   4       7.577  88.099  65.355  1.00  0.00     0.116 C 
BRANCH   7   8
ATOM      8  CD  GLU B   4       8.428  87.176  66.206  1.00  0.00     0.172 C 
ATOM      9  OE1 GLU B   4       9.320  86.507  65.645  1.00  0.00    -0.648 OA
ATOM     10  OE2 GLU B   4       8.201  87.123  67.433  1.00  0.00    -0.648 OA
ENDBRANCH   7   8
ENDBRANCH   6   7
ENDBRANCH   5   6
BRANCH   5  11
ATOM     11  N   GLU B   4       9.216  90.085  64.537  1.00  0.00    -0.346 N 
ATOM     12  H   GLU B   4       9.204  89.674  65.427  1.00  0.23     0.163 HD
ATOM     13  C   TRP B   3       9.757  91.290  64.381  1.00  0.00     0.241 C 
ATOM     14  O   TRP B   3       9.804  91.862  63.293  1.00  0.00    -0.271 OA
BRANCH  13  15
ATOM     15  CA  TRP B   3      10.330  91.948  65.633  1.00  0.00     0.181 C 
BRANCH  15  16
ATOM     16  N   TRP B   3       9.446  91.757  66.779  1.00  0.00    -0.346 N 
ATOM     17  H   TRP B   3       8.792  92.454  66.999  1.00  0.23     0.163 HD
ATOM     18  C   GLY B   2       9.510  90.665  67.536  1.00  0.00     0.236 C 
ATOM     19  O   GLY B   2      10.306  89.750  67.327  1.00  0.00    -0.272 OA
BRANCH  18  20
ATOM     20  CA  GLY B   2       8.538  90.593  68.698  1.00  0.00     0.225 C 
BRANCH  20  21
ATOM     21  N   GLY B   2       7.265  90.004  68.325  1.00  0.00    -0.350 N 
ATOM     22  C   ALA B   1       6.315  90.741  67.736  1.00  0.00     0.253 C 
ATOM     23  O   ALA B   1       6.441  91.942  67.522  1.00  0.00    -0.271 OA
ATOM     24  H   GLY B   2       7.101  89.053  68.489  1.00  0.23     0.163 HD
BRANCH  22  25
ATOM     25  CA  ALA B   1       5.031  90.011  67.418  1.00  0.00     0.346 C 
ATOM     26  CB  ALA B   1       5.032  88.557  67.922  1.00  0.00     0.056 C 
BRANCH  25  27
ATOM     27  N   ALA B   1       4.791  89.979  65.978  1.00  0.00     0.311 N 
ATOM     28  H   ALA B   1       4.327  90.904  65.670  1.00  0.00     0.359 HD
ENDBRANCH  25  27
ENDBRANCH  22  25
ENDBRANCH  20  21
ENDBRANCH  18  20
ENDBRANCH  15  16
BRANCH  15  29
ATOM     29  CB  TRP B   3      11.733  91.394  65.921  1.00  0.00     0.075 C 
BRANCH  29  30
ATOM     30  CG  TRP B   3      12.722  91.628  64.816  1.00  0.00    -0.028 A 
ATOM     31  CD1 TRP B   3      13.462  90.683  64.166  1.00  0.00     0.096 A 
ATOM     32  NE1 TRP B   3      14.262  91.278  63.219  1.00  0.00    -0.365 N 
ATOM     33  CE2 TRP B   3      14.050  92.632  63.246  1.00  0.00     0.042 A 
ATOM     34  HE1 TRP B   3      14.882  90.809  62.622  1.00  0.23     0.165 HD
ATOM     35  CZ2 TRP B   3      14.622  93.646  62.482  1.00  0.00     0.030 A 
ATOM     36  CD2 TRP B   3      13.087  92.889  64.241  1.00  0.00    -0.002 A 
ATOM     37  CH2 TRP B   3      14.216  94.929  62.727  1.00  0.00     0.002 A 
ATOM     38  CZ3 TRP B   3      13.262  95.216  63.710  1.00  0.00     0.001 A 
ATOM     39  CE3 TRP B   3      12.694  94.211  64.470  1.00  0.00     0.014 A 
ENDBRANCH  29  30
ENDBRANCH  15  29
ENDBRANCH  13  15
ENDBRANCH   5  11
ENDBRANCH   1   5
BRANCH   4  40
ATOM     40  CA  THR B   5       6.017  92.065  62.827  1.00  7.88     0.205 C 
BRANCH  40  41
ATOM     41  C   THR B   5       4.642  91.403  62.803  1.00  7.05     0.243 C 
ATOM     42  N   TRP B   6       4.462  90.454  61.892  1.00  0.00    -0.346 N 
ATOM     43  H   TRP B   6       5.200  90.222  61.289  1.00  0.23     0.163 HD
ATOM     44  O   THR B   5       3.763  91.749  63.592  1.00  6.06    -0.271 OA
BRANCH  42  45
ATOM     45  CA  TRP B   6       3.193  89.748  61.765  1.00  0.00     0.181 C 
BRANCH  45  46
ATOM     46  CB  TRP B   6       3.076  89.120  60.375  1.00  0.00     0.075 C 
BRANCH  46  47
ATOM     47  CG  TRP B   6       4.406  88.831  59.750  1.00  0.00    -0.028 A 
ATOM     48  CD2 TRP B   6       5.160  87.618  59.863  1.00  0.00    -0.002 A 
ATOM     49  CE2 TRP B   6       6.338  87.789  59.111  1.00  0.00     0.042 A 
ATOM     50  CE3 TRP B   6       4.954  86.407  60.528  1.00  0.00     0.014 A 
ATOM     51  CZ2 TRP B   6       7.303  86.791  59.006  1.00  0.00     0.030 A 
ATOM     52  NE1 TRP B   6       6.301  89.046  58.566  1.00  0.00    -0.365 N 
ATOM     53  CH2 TRP B   6       7.077  85.615  59.667  1.00  0.00     0.002 A 
ATOM     54  CZ3 TRP B   6       5.915  85.417  60.422  1.00  0.00     0.001 A 
ATOM     55  HE1 TRP B   6       6.992  89.439  57.992  1.00  0.23     0.165 HD
ATOM     56  CD1 TRP B   6       5.138  89.665  58.955  1.00  0.00     0.096 A 
ENDBRANCH  46  47
ENDBRANCH  45  46
BRANCH  45  57
ATOM     57  C   TRP B   6       3.055  88.676  62.840  1.00  0.00     0.241 C 
ATOM     58  O   TRP B   6       4.047  88.229  63.417  1.00  0.00    -0.271 OA
ATOM     59  N   VAL B   7       1.817  88.271  63.106  1.00  6.11    -0.344 N 
ATOM     60  H   VAL B   7       1.069  88.668  62.613  1.00  0.23     0.163 HD
BRANCH  59  61
ATOM     61  CA  VAL B   7       1.544  87.254  64.114  1.00  5.65     0.189 C 
BRANCH  61  62
ATOM     62  CB  VAL B   7       2.140  85.893  63.707  1.00  1.15     0.010 C 
ATOM     63  CG1 VAL B   7       1.547  84.776  64.554  1.00  4.96     0.012 C 
ATOM     64  CG2 VAL B   7       1.911  85.626  62.227  1.00  9.83     0.012 C 
ENDBRANCH  61  62
BRANCH  61  65
ATOM     65  C   VAL B   7       2.108  87.660  65.473  1.00  4.44     0.197 C 
ATOM     66  OXT VAL B   7       2.792  86.827  66.101  1.00  0.00    -0.646 OA
ATOM     67  O   VAL B   7       1.859  88.808  65.895  1.00  0.00    -0.646 OA
ENDBRANCH  61  65
ENDBRANCH  59  61
ENDBRANCH  45  57
ENDBRANCH  42  45
ENDBRANCH  40  41
BRANCH  40  68
ATOM     68  CB  THR B   5       6.425  92.471  61.410  1.00  4.05     0.146 C 
ATOM     69  CG2 THR B   5       5.473  93.461  60.775  1.00  3.72     0.042 C 
BRANCH  68  70
ATOM     70  OG1 THR B   5       7.715  93.055  61.408  1.00  7.31    -0.393 OA
ATOM     71  HG1 THR B   5       7.745  93.766  62.052  1.00  0.23     0.210 HD
ENDBRANCH  68  70
ENDBRANCH  40  68
ENDBRANCH   4  40
TORSDOF 24
ENDMDL
MODEL 8
REMARK VINA RESULT:      -4.9      2.974      6.747
REMARK  24 active torsions:
REMARK  status: ('A' for Active; 'I' for Inactive)
REMARK    1  A    between atoms: N_1  and  CA_2 
REMARK    2  A    between atoms: CA_2  and  C_3 
REMARK       I    between atoms: C_3  and  N_10 
REMARK    3  A    between atoms: CA_7  and  N_10 
REMARK    4  A    between atoms: CA_7  and  C_8 
REMARK       I    between atoms: C_8  and  N_25 
REMARK    5  A    between atoms: CA_12  and  N_25 
REMARK    6  A    between atoms: CA_12  and  CB_14 
REMARK    7  A    between atoms: CA_12  and  C_13 
REMARK       I    between atoms: C_13  and  N_34 
REMARK    8  A    between atoms: CB_14  and  CG_15 
REMARK    9  A    between atoms: CA_28  and  CB_30 
REMARK   10  A    between atoms: CA_28  and  N_34 
REMARK   11  A    between atoms: CA_28  and  C_29 
REMARK       I    between atoms: C_29  and  N_44 
REMARK   12  A    between atoms: CB_30  and  CG_31 
REMARK   13  A    between atoms: CG_31  and  CD_32 
REMARK   14  A    between atoms: CA_38  and  N_44 
REMARK   15  A    between atoms: CA_38  and  C_39 
REMARK   16  A    between atoms: CA_38  and  CB_40 
REMARK       I    between atoms: C_39  and  N_60 
REMARK   17  A    between atoms: CB_40  and  OG1_46 
REMARK   18  A    between atoms: CA_47  and  N_60 
REMARK   19  A    between atoms: CA_47  and  CB_49 
REMARK   20  A    between atoms: CA_47  and  C_48 
REMARK       I    between atoms: C_48  and  N_69 
REMARK   21  A    between atoms: CB_49  and  CG_50 
REMARK   22  A    between atoms: CA_63  and  CB_65 
REMARK   23  A    between atoms: CA_63  and  C_64 
REMARK   24  A    between atoms: CA_63  and  N_69 
ROOT
ATOM      1  C   GLU B   4       7.983  90.571  62.874  1.00  0.00     0.241 C 
ATOM      2  O   GLU B   4       7.465  90.235  61.809  1.00  0.00    -0.271 OA
ATOM      3  H   THR B   5       8.160  91.932  64.328  1.00  0.23     0.163 HD
ATOM      4  N   THR B   5       7.711  91.723  63.481  1.00  7.70    -0.344 N 
ENDROOT
BRANCH   1   5
ATOM      5  CA  GLU B   4       8.994  89.666  63.572  1.00  0.00     0.177 C 
BRANCH   5   6
ATOM      6  CB  GLU B   4       8.348  88.316  63.885  1.00  0.00     0.045 C 
BRANCH   6   7
ATOM      7  CG  GLU B   4       8.933  87.635  65.111  1.00  0.00     0.116 C 
BRANCH   7   8
ATOM      8  CD  GLU B   4       7.973  87.615  66.285  1.00  0.00     0.172 C 
ATOM      9  OE1 GLU B   4       7.073  88.480  66.330  1.00  0.00    -0.648 OA
ATOM     10  OE2 GLU B   4       8.122  86.735  67.158  1.00  0.00    -0.648 OA
ENDBRANCH   7   8
ENDBRANCH   6   7
ENDBRANCH   5   6
BRANCH   5  11
ATOM     11  N   GLU B   4       9.495  90.290  64.795  1.00  0.00    -0.346 N 
ATOM     12  H   GLU B   4       8.860  90.700  65.418  1.00  0.23     0.163 HD
ATOM     13  C   TRP B   3      10.795  90.315  65.076  1.00  0.00     0.241 C 
ATOM     14  O   TRP B   3      11.645  89.821  64.337  1.00  0.00    -0.271 OA
BRANCH  13  15
ATOM     15  CA  TRP B   3      11.197  90.997  66.380  1.00  0.00     0.181 C 
BRANCH  15  16
ATOM     16  N   TRP B   3      10.810  90.192  67.536  1.00  0.00    -0.346 N 
ATOM     17  H   TRP B   3      11.441  89.531  67.891  1.00  0.23     0.163 HD
ATOM     18  C   GLY B   2       9.619  90.329  68.114  1.00  0.00     0.236 C 
ATOM     19  O   GLY B   2       8.773  91.132  67.723  1.00  0.00    -0.272 OA
BRANCH  18  20
ATOM     20  CA  GLY B   2       9.341  89.429  69.302  1.00  0.00     0.225 C 
BRANCH  20  21
ATOM     21  N   GLY B   2       7.976  88.935  69.319  1.00  0.00    -0.350 N 
ATOM     22  C   ALA B   1       7.452  88.403  70.430  1.00  0.00     0.253 C 
ATOM     23  O   ALA B   1       8.093  88.262  71.466  1.00  0.00    -0.271 OA
ATOM     24  H   GLY B   2       7.422  89.004  68.514  1.00  0.23     0.163 HD
BRANCH  22  25
ATOM     25  CA  ALA B   1       6.030  87.910  70.306  1.00  0.00     0.346 C 
ATOM     26  CB  ALA B   1       5.630  86.954  71.444  1.00  0.00     0.056 C 
BRANCH  25  27
ATOM     27  N   ALA B   1       5.830  87.204  69.045  1.00  0.00     0.311 N 
ATOM     28  H   ALA B   1       6.107  87.848  68.223  1.00  0.00     0.359 HD
ENDBRANCH  25  27
ENDBRANCH  22  25
ENDBRANCH  20  21
ENDBRANCH  18  20
ENDBRANCH  15  16
BRANCH  15  29
ATOM     29  CB  TRP B   3      12.708  91.274  66.383  1.00  0.00     0.075 C 
BRANCH  29  30
ATOM     30  CG  TRP B   3      13.174  92.130  65.242  1.00  0.00    -0.028 A 
ATOM     31  CD1 TRP B   3      14.374  92.051  64.597  1.00  0.00     0.096 A 
ATOM     32  NE1 TRP B   3      14.444  93.006  63.609  1.00  0.00    -0.365 N 
ATOM     33  CE2 TRP B   3      13.277  93.725  63.604  1.00  0.00     0.042 A 
ATOM     34  HE1 TRP B   3      15.205  93.147  63.007  1.00  0.23     0.165 HD
ATOM     35  CZ2 TRP B   3      12.880  94.786  62.794  1.00  0.00     0.030 A 
ATOM     36  CD2 TRP B   3      12.454  93.202  64.620  1.00  0.00    -0.002 A 
ATOM     37  CH2 TRP B   3      11.641  95.321  63.014  1.00  0.00     0.002 A 
ATOM     38  CZ3 TRP B   3      10.801  94.824  64.018  1.00  0.00     0.001 A 
ATOM     39  CE3 TRP B   3      11.193  93.772  64.823  1.00  0.00     0.014 A 
ENDBRANCH  29  30
ENDBRANCH  15  29
ENDBRANCH  13  15
ENDBRANCH   5  11
ENDBRANCH   1   5
BRANCH   4  40
ATOM     40  CA  THR B   5       6.766  92.686  62.924  1.00  7.88     0.205 C 
BRANCH  40  41
ATOM     41  C   THR B   5       5.333  92.194  63.097  1.00  7.05     0.243 C 
ATOM     42  N   TRP B   6       5.181  90.894  63.329  1.00  0.00    -0.346 N 
ATOM     43  H   TRP B   6       5.974  90.321  63.378  1.00  0.23     0.163 HD
ATOM     44  O   THR B   5       4.385  92.975  63.020  1.00  6.06    -0.271 OA
BRANCH  42  45
ATOM     45  CA  TRP B   6       3.863  90.300  63.508  1.00  0.00     0.181 C 
BRANCH  45  46
ATOM     46  CB  TRP B   6       3.831  88.894  62.907  1.00  0.00     0.075 C 
BRANCH  46  47
ATOM     47  CG  TRP B   6       3.395  88.882  61.474  1.00  0.00    -0.028 A 
ATOM     48  CD2 TRP B   6       3.019  87.734  60.703  1.00  0.00    -0.002 A 
ATOM     49  CE2 TRP B   6       2.678  88.191  59.415  1.00  0.00     0.042 A 
ATOM     50  CE3 TRP B   6       2.939  86.366  60.976  1.00  0.00     0.014 A 
ATOM     51  CZ2 TRP B   6       2.263  87.326  58.406  1.00  0.00     0.030 A 
ATOM     52  NE1 TRP B   6       2.840  89.552  59.405  1.00  0.00    -0.365 N 
ATOM     53  CH2 TRP B   6       2.194  85.992  58.700  1.00  0.00     0.002 A 
ATOM     54  CZ3 TRP B   6       2.526  85.509  59.971  1.00  0.00     0.001 A 
ATOM     55  HE1 TRP B   6       2.675  90.140  58.638  1.00  0.23     0.165 HD
ATOM     56  CD1 TRP B   6       3.271  89.958  60.644  1.00  0.00     0.096 A 
ENDBRANCH  46  47
ENDBRANCH  45  46
BRANCH  45  57
ATOM     57  C   TRP B   6       3.484  90.249  64.985  1.00  0.00     0.241 C 
ATOM     58  O   TRP B   6       2.871  91.177  65.512  1.00  0.00    -0.271 OA
ATOM     59  N   VAL B   7       3.852  89.154  65.645  1.00  6.11    -0.344 N 
ATOM     60  H   VAL B   7       4.336  88.449  65.168  1.00  0.23     0.163 HD
BRANCH  59  61
ATOM     61  CA  VAL B   7       3.550  88.976  67.059  1.00  5.65     0.189 C 
BRANCH  61  62
ATOM     62  CB  VAL B   7       3.699  90.301  67.832  1.00  1.15     0.010 C 
ATOM     63  CG1 VAL B   7       3.025  90.204  69.193  1.00  4.96     0.012 C 
ATOM     64  CG2 VAL B   7       5.167  90.673  67.983  1.00  9.83     0.012 C 
ENDBRANCH  61  62
BRANCH  61  65
ATOM     65  C   VAL B   7       2.135  88.439  67.258  1.00  4.44     0.197 C 
ATOM     66  OXT VAL B   7       1.994  87.346  67.843  1.00  0.00    -0.646 OA
ATOM     67  O   VAL B   7       1.181  89.120  66.826  1.00  0.00    -0.646 OA
ENDBRANCH  61  65
ENDBRANCH  59  61
ENDBRANCH  45  57
ENDBRANCH  42  45
ENDBRANCH  40  41
BRANCH  40  68
ATOM     68  CB  THR B   5       7.061  92.921  61.441  1.00  4.05     0.146 C 
ATOM     69  CG2 THR B   5       5.982  93.713  60.736  1.00  3.72     0.042 C 
BRANCH  68  70
ATOM     70  OG1 THR B   5       8.282  93.621  61.279  1.00  7.31    -0.393 OA
ATOM     71  HG1 THR B   5       8.100  94.547  61.106  1.00  0.23     0.210 HD
ENDBRANCH  68  70
ENDBRANCH  40  68
ENDBRANCH   4  40
TORSDOF 24
ENDMDL
MODEL 9
REMARK VINA RESULT:      -4.5      2.364      4.709
REMARK  24 active torsions:
REMARK  status: ('A' for Active; 'I' for Inactive)
REMARK    1  A    between atoms: N_1  and  CA_2 
REMARK    2  A    between atoms: CA_2  and  C_3 
REMARK       I    between atoms: C_3  and  N_10 
REMARK    3  A    between atoms: CA_7  and  N_10 
REMARK    4  A    between atoms: CA_7  and  C_8 
REMARK       I    between atoms: C_8  and  N_25 
REMARK    5  A    between atoms: CA_12  and  N_25 
REMARK    6  A    between atoms: CA_12  and  CB_14 
REMARK    7  A    between atoms: CA_12  and  C_13 
REMARK       I    between atoms: C_13  and  N_34 
REMARK    8  A    between atoms: CB_14  and  CG_15 
REMARK    9  A    between atoms: CA_28  and  CB_30 
REMARK   10  A    between atoms: CA_28  and  N_34 
REMARK   11  A    between atoms: CA_28  and  C_29 
REMARK       I    between atoms: C_29  and  N_44 
REMARK   12  A    between atoms: CB_30  and  CG_31 
REMARK   13  A    between atoms: CG_31  and  CD_32 
REMARK   14  A    between atoms: CA_38  and  N_44 
REMARK   15  A    between atoms: CA_38  and  C_39 
REMARK   16  A    between atoms: CA_38  and  CB_40 
REMARK       I    between atoms: C_39  and  N_60 
REMARK   17  A    between atoms: CB_40  and  OG1_46 
REMARK   18  A    between atoms: CA_47  and  N_60 
REMARK   19  A    between atoms: CA_47  and  CB_49 
REMARK   20  A    between atoms: CA_47  and  C_48 
REMARK       I    between atoms: C_48  and  N_69 
REMARK   21  A    between atoms: CB_49  and  CG_50 
REMARK   22  A    between atoms: CA_63  and  CB_65 
REMARK   23  A    between atoms: CA_63  and  C_64 
REMARK   24  A    between atoms: CA_63  and  N_69 
ROOT
ATOM      1  C   GLU B   4       7.368  90.003  62.324  1.00  0.00     0.241 C 
ATOM      2  O   GLU B   4       7.134  89.631  61.174  1.00  0.00    -0.271 OA
ATOM      3  H   THR B   5       6.923  91.221  63.845  1.00  0.23     0.163 HD
ATOM      4  N   THR B   5       6.683  90.971  62.927  1.00  7.70    -0.344 N 
ENDROOT
BRANCH   1   5
ATOM      5  CA  GLU B   4       8.488  89.363  63.139  1.00  0.00     0.177 C 
BRANCH   5   6
ATOM      6  CB  GLU B   4       8.078  87.951  63.559  1.00  0.00     0.045 C 
BRANCH   6   7
ATOM      7  CG  GLU B   4       8.628  87.541  64.915  1.00  0.00     0.116 C 
BRANCH   7   8
ATOM      8  CD  GLU B   4       7.652  87.800  66.047  1.00  0.00     0.172 C 
ATOM      9  OE1 GLU B   4       6.623  88.464  65.802  1.00  0.00    -0.648 OA
ATOM     10  OE2 GLU B   4       7.917  87.339  67.177  1.00  0.00    -0.648 OA
ENDBRANCH   7   8
ENDBRANCH   6   7
ENDBRANCH   5   6
BRANCH   5  11
ATOM     11  N   GLU B   4       8.808  90.175  64.311  1.00  0.00    -0.346 N 
ATOM     12  H   GLU B   4       8.702  89.788  65.205  1.00  0.23     0.163 HD
ATOM     13  C   TRP B   3       9.236  91.428  64.189  1.00  0.00     0.241 C 
ATOM     14  O   TRP B   3       9.391  91.975  63.098  1.00  0.00    -0.271 OA
BRANCH  13  15
ATOM     15  CA  TRP B   3       9.535  92.176  65.485  1.00  0.00     0.181 C 
BRANCH  15  16
ATOM     16  N   TRP B   3      10.913  92.660  65.507  1.00  0.00    -0.346 N 
ATOM     17  H   TRP B   3      11.095  93.596  65.277  1.00  0.23     0.163 HD
ATOM     18  C   GLY B   2      11.928  91.860  65.824  1.00  0.00     0.236 C 
ATOM     19  O   GLY B   2      11.782  90.675  66.117  1.00  0.00    -0.272 OA
BRANCH  18  20
ATOM     20  CA  GLY B   2      13.309  92.487  65.804  1.00  0.00     0.225 C 
BRANCH  20  21
ATOM     21  N   GLY B   2      13.597  93.162  64.551  1.00  0.00    -0.350 N 
ATOM     22  C   ALA B   1      14.727  92.908  63.879  1.00  0.00     0.253 C 
ATOM     23  O   ALA B   1      15.590  92.141  64.293  1.00  0.00    -0.271 OA
ATOM     24  H   GLY B   2      12.952  93.799  64.181  1.00  0.23     0.163 HD
BRANCH  22  25
ATOM     25  CA  ALA B   1      14.912  93.692  62.601  1.00  0.00     0.346 C 
ATOM     26  CB  ALA B   1      15.981  94.791  62.726  1.00  0.00     0.056 C 
BRANCH  25  27
ATOM     27  N   ALA B   1      13.664  94.332  62.195  1.00  0.00     0.311 N 
ATOM     28  H   ALA B   1      13.740  95.399  62.348  1.00  0.00     0.359 HD
ENDBRANCH  25  27
ENDBRANCH  22  25
ENDBRANCH  20  21
ENDBRANCH  18  20
ENDBRANCH  15  16
BRANCH  15  29
ATOM     29  CB  TRP B   3       8.542  93.333  65.664  1.00  0.00     0.075 C 
BRANCH  29  30
ATOM     30  CG  TRP B   3       7.121  92.893  65.864  1.00  0.00    -0.028 A 
ATOM     31  CD1 TRP B   3       6.023  93.338  65.185  1.00  0.00     0.096 A 
ATOM     32  NE1 TRP B   3       4.892  92.709  65.653  1.00  0.00    -0.365 N 
ATOM     33  CE2 TRP B   3       5.247  91.843  66.653  1.00  0.00     0.042 A 
ATOM     34  HE1 TRP B   3       3.981  92.858  65.322  1.00  0.23     0.165 HD
ATOM     35  CZ2 TRP B   3       4.460  90.991  67.424  1.00  0.00     0.030 A 
ATOM     36  CD2 TRP B   3       6.643  91.933  66.814  1.00  0.00    -0.002 A 
ATOM     37  CH2 TRP B   3       5.092  90.226  68.366  1.00  0.00     0.002 A 
ATOM     38  CZ3 TRP B   3       6.477  90.294  68.551  1.00  0.00     0.001 A 
ATOM     39  CE3 TRP B   3       7.260  91.139  67.787  1.00  0.00     0.014 A 
ENDBRANCH  29  30
ENDBRANCH  15  29
ENDBRANCH  13  15
ENDBRANCH   5  11
ENDBRANCH   1   5
BRANCH   4  40
ATOM     40  CA  THR B   5       5.588  91.671  62.263  1.00  7.88     0.205 C 
BRANCH  40  41
ATOM     41  C   THR B   5       4.259  90.975  62.540  1.00  7.05     0.243 C 
ATOM     42  N   TRP B   6       4.007  89.884  61.826  1.00  0.00    -0.346 N 
ATOM     43  H   TRP B   6       4.667  89.578  61.169  1.00  0.23     0.163 HD
ATOM     44  O   THR B   5       3.478  91.420  63.381  1.00  6.06    -0.271 OA
BRANCH  42  45
ATOM     45  CA  TRP B   6       2.770  89.131  61.993  1.00  0.00     0.181 C 
BRANCH  45  46
ATOM     46  CB  TRP B   6       2.575  88.170  60.820  1.00  0.00     0.075 C 
BRANCH  46  47
ATOM     47  CG  TRP B   6       3.807  87.380  60.500  1.00  0.00    -0.028 A 
ATOM     48  CD2 TRP B   6       4.842  87.742  59.577  1.00  0.00    -0.002 A 
ATOM     49  CE2 TRP B   6       5.802  86.713  59.603  1.00  0.00     0.042 A 
ATOM     50  CE3 TRP B   6       5.047  88.836  58.732  1.00  0.00     0.014 A 
ATOM     51  CZ2 TRP B   6       6.949  86.748  58.816  1.00  0.00     0.030 A 
ATOM     52  NE1 TRP B   6       5.371  85.770  60.499  1.00  0.00    -0.365 N 
ATOM     53  CH2 TRP B   6       7.127  87.829  57.997  1.00  0.00     0.002 A 
ATOM     54  CZ3 TRP B   6       6.189  88.868  57.951  1.00  0.00     0.001 A 
ATOM     55  HE1 TRP B   6       5.841  84.939  60.723  1.00  0.23     0.165 HD
ATOM     56  CD1 TRP B   6       4.173  86.178  61.033  1.00  0.00     0.096 A 
ENDBRANCH  46  47
ENDBRANCH  45  46
BRANCH  45  57
ATOM     57  C   TRP B   6       2.775  88.361  63.309  1.00  0.00     0.241 C 
ATOM     58  O   TRP B   6       3.832  88.102  63.885  1.00  0.00    -0.271 OA
ATOM     59  N   VAL B   7       1.585  88.002  63.780  1.00  6.11    -0.344 N 
ATOM     60  H   VAL B   7       0.780  88.239  63.275  1.00  0.23     0.163 HD
BRANCH  59  61
ATOM     61  CA  VAL B   7       1.446  87.264  65.029  1.00  5.65     0.189 C 
BRANCH  61  62
ATOM     62  CB  VAL B   7       2.067  85.858  64.918  1.00  1.15     0.010 C 
ATOM     63  CG1 VAL B   7       1.607  84.978  66.072  1.00  4.96     0.012 C 
ATOM     64  CG2 VAL B   7       1.717  85.220  63.581  1.00  9.83     0.012 C 
ENDBRANCH  61  62
BRANCH  61  65
ATOM     65  C   VAL B   7       2.106  88.010  66.186  1.00  4.44     0.197 C 
ATOM     66  OXT VAL B   7       1.625  89.108  66.533  1.00  0.00    -0.646 OA
ATOM     67  O   VAL B   7       3.099  87.487  66.734  1.00  0.00    -0.646 OA
ENDBRANCH  61  65
ENDBRANCH  59  61
ENDBRANCH  45  57
ENDBRANCH  42  45
ENDBRANCH  40  41
BRANCH  40  68
ATOM     68  CB  THR B   5       5.838  91.739  60.756  1.00  4.05     0.146 C 
ATOM     69  CG2 THR B   5       4.683  92.340  59.985  1.00  3.72     0.042 C 
BRANCH  68  70
ATOM     70  OG1 THR B   5       6.991  92.512  60.473  1.00  7.31    -0.393 OA
ATOM     71  HG1 THR B   5       7.506  92.080  59.789  1.00  0.23     0.210 HD
ENDBRANCH  68  70
ENDBRANCH  40  68
ENDBRANCH   4  40
TORSDOF 24
ENDMDL
