MODEL 1
REMARK VINA RESULT:      -7.3      0.000      0.000
REMARK  26 active torsions:
REMARK  status: ('A' for Active; 'I' for Inactive)
REMARK    1  A    between atoms: N_1  and  CA_2 
REMARK    2  A    between atoms: CA_2  and  CB_5 
REMARK    3  A    between atoms: CA_2  and  C_3 
REMARK       I    between atoms: C_3  and  N_12 
REMARK    4  A    between atoms: CB_5  and  OG_6 
REMARK    5  A    between atoms: CA_9  and  N_12 
REMARK    6  A    between atoms: CA_9  and  C_10 
REMARK       I    between atoms: C_10  and  N_27 
REMARK    7  A    between atoms: CA_14  and  N_27 
REMARK    8  A    between atoms: CA_14  and  CB_16 
REMARK    9  A    between atoms: CA_14  and  C_15 
REMARK       I    between atoms: C_15  and  N_36 
REMARK   10  A    between atoms: CB_16  and  CG_17 
REMARK   11  A    between atoms: CA_30  and  CB_32 
REMARK   12  A    between atoms: CA_30  and  N_36 
REMARK   13  A    between atoms: CA_30  and  C_31 
REMARK       I    between atoms: C_31  and  N_46 
REMARK   14  A    between atoms: CB_32  and  CG_33 
REMARK   15  A    between atoms: CG_33  and  CD_34 
REMARK   16  A    between atoms: CA_40  and  N_46 
REMARK   17  A    between atoms: CA_40  and  C_41 
REMARK   18  A    between atoms: CA_40  and  CB_42 
REMARK       I    between atoms: C_41  and  N_62 
REMARK   19  A    between atoms: CB_42  and  OG1_48 
REMARK   20  A    between atoms: CA_49  and  N_62 
REMARK   21  A    between atoms: CA_49  and  CB_51 
REMARK   22  A    between atoms: CA_49  and  C_50 
REMARK       I    between atoms: C_50  and  N_71 
REMARK   23  A    between atoms: CB_51  and  CG_52 
REMARK   24  A    between atoms: CA_65  and  CB_67 
REMARK   25  A    between atoms: CA_65  and  C_66 
REMARK   26  A    between atoms: CA_65  and  N_71 
ROOT
ATOM      1  CA  GLU B   4       3.589  88.587  62.289  1.00  0.00     0.177 C 
ENDROOT
BRANCH   1   2
ATOM      2  CB  GLU B   4       3.349  89.393  61.012  1.00  0.00     0.045 C 
BRANCH   2   3
ATOM      3  CG  GLU B   4       4.009  88.788  59.783  1.00  0.00     0.116 C 
BRANCH   3   4
ATOM      4  CD  GLU B   4       4.787  89.808  58.973  1.00  0.00     0.172 C 
ATOM      5  OE1 GLU B   4       4.523  91.017  59.133  1.00  0.00    -0.648 OA
ATOM      6  OE2 GLU B   4       5.658  89.395  58.180  1.00  0.00    -0.648 OA
ENDBRANCH   3   4
ENDBRANCH   2   3
ENDBRANCH   1   2
BRANCH   1   7
ATOM      7  N   GLU B   4       3.558  89.461  63.460  1.00  0.00    -0.346 N 
ATOM      8  H   GLU B   4       4.349  89.996  63.679  1.00  0.23     0.163 HD
ATOM      9  C   TRP B   3       2.479  89.543  64.234  1.00  0.00     0.241 C 
ATOM     10  O   TRP B   3       1.454  88.899  64.016  1.00  0.00    -0.271 OA
BRANCH   9  11
ATOM     11  CA  TRP B   3       2.567  90.488  65.429  1.00  0.00     0.181 C 
BRANCH  11  12
ATOM     12  N   TRP B   3       3.348  91.678  65.102  1.00  0.00    -0.346 N 
ATOM     13  H   TRP B   3       3.068  92.241  64.349  1.00  0.23     0.163 HD
ATOM     14  C   GLY B   2       4.433  92.012  65.795  1.00  0.00     0.236 C 
ATOM     15  O   GLY B   2       4.849  91.355  66.747  1.00  0.00    -0.272 OA
BRANCH  14  16
ATOM     16  CA  GLY B   2       5.155  93.269  65.349  1.00  0.00     0.225 C 
BRANCH  16  17
ATOM     17  N   GLY B   2       4.843  93.635  63.979  1.00  0.00    -0.350 N 
ATOM     18  C   SER B   1       5.578  93.181  62.954  1.00  0.00     0.256 C 
ATOM     19  O   SER B   1       6.568  92.465  63.122  1.00  0.00    -0.271 OA
ATOM     20  H   GLY B   2       4.075  94.213  63.792  1.00  0.23     0.163 HD
BRANCH  18  21
ATOM     21  CA  SER B   1       5.140  93.649  61.587  1.00  0.00     0.373 C 
BRANCH  21  22
ATOM     22  N   SER B   1       4.455  94.935  61.669  1.00  0.00     0.314 N 
ATOM     23  H   SER B   1       4.722  95.534  60.832  1.00  0.00     0.359 HD
ENDBRANCH  21  22
BRANCH  21  24
ATOM     24  CB  SER B   1       6.332  93.723  60.599  1.00  0.00     0.212 C 
BRANCH  24  25
ATOM     25  OG  SER B   1       6.863  92.435  60.270  1.00  0.00    -0.398 OA
ATOM     26  HG  SER B   1       7.416  92.157  61.004  1.00  0.00     0.209 HD
ENDBRANCH  24  25
ENDBRANCH  21  24
ENDBRANCH  18  21
ENDBRANCH  16  17
ENDBRANCH  14  16
ENDBRANCH  11  12
BRANCH  11  27
ATOM     27  CB  TRP B   3       1.156  90.867  65.902  1.00  0.00     0.075 C 
BRANCH  27  28
ATOM     28  CG  TRP B   3       1.108  91.419  67.297  1.00  0.00    -0.028 A 
ATOM     29  CD1 TRP B   3       0.504  92.576  67.699  1.00  0.00     0.096 A 
ATOM     30  NE1 TRP B   3       0.678  92.755  69.052  1.00  0.00    -0.365 N 
ATOM     31  CE2 TRP B   3       1.407  91.706  69.547  1.00  0.00     0.042 A 
ATOM     32  HE1 TRP B   3       0.335  93.510  69.574  1.00  0.23     0.165 HD
ATOM     33  CZ2 TRP B   3       1.832  91.444  70.848  1.00  0.00     0.030 A 
ATOM     34  CD2 TRP B   3       1.696  90.846  68.471  1.00  0.00    -0.002 A 
ATOM     35  CH2 TRP B   3       2.556  90.302  71.058  1.00  0.00     0.002 A 
ATOM     36  CZ3 TRP B   3       2.862  89.429  70.008  1.00  0.00     0.001 A 
ATOM     37  CE3 TRP B   3       2.440  89.687  68.718  1.00  0.00     0.014 A 
ENDBRANCH  27  28
ENDBRANCH  11  27
ENDBRANCH   9  11
ENDBRANCH   1   7
BRANCH   1  38
ATOM     38  C   GLU B   4       4.923  87.854  62.193  1.00  0.00     0.241 C 
ATOM     39  N   THR B   5       6.011  88.584  62.425  1.00  7.70    -0.344 N 
ATOM     40  H   THR B   5       5.908  89.535  62.640  1.00  0.23     0.163 HD
ATOM     41  O   GLU B   4       4.966  86.654  61.919  1.00  0.00    -0.271 OA
BRANCH  39  42
ATOM     42  CA  THR B   5       7.352  88.011  62.370  1.00  7.88     0.205 C 
BRANCH  42  43
ATOM     43  C   THR B   5       8.190  88.490  63.551  1.00  7.05     0.243 C 
ATOM     44  N   TRP B   6       8.619  89.746  63.496  1.00  0.00    -0.346 N 
ATOM     45  H   TRP B   6       8.386  90.299  62.721  1.00  0.23     0.163 HD
ATOM     46  O   THR B   5       8.444  87.736  64.490  1.00  6.06    -0.271 OA
BRANCH  44  47
ATOM     47  CA  TRP B   6       9.432  90.322  64.560  1.00  0.00     0.181 C 
BRANCH  47  48
ATOM     48  CB  TRP B   6      10.159  91.568  64.053  1.00  0.00     0.075 C 
BRANCH  48  49
ATOM     49  CG  TRP B   6      11.647  91.396  64.003  1.00  0.00    -0.028 A 
ATOM     50  CD2 TRP B   6      12.622  92.428  63.810  1.00  0.00    -0.002 A 
ATOM     51  CE2 TRP B   6      13.889  91.814  63.840  1.00  0.00     0.042 A 
ATOM     52  CE3 TRP B   6      12.547  93.809  63.614  1.00  0.00     0.014 A 
ATOM     53  CZ2 TRP B   6      15.069  92.536  63.683  1.00  0.00     0.030 A 
ATOM     54  NE1 TRP B   6      13.692  90.472  64.042  1.00  0.00    -0.365 N 
ATOM     55  CH2 TRP B   6      14.967  93.887  63.492  1.00  0.00     0.002 A 
ATOM     56  CZ3 TRP B   6      13.721  94.525  63.458  1.00  0.00     0.001 A 
ATOM     57  HE1 TRP B   6      14.399  89.796  64.107  1.00  0.23     0.165 HD
ATOM     58  CD1 TRP B   6      12.343  90.230  64.138  1.00  0.00     0.096 A 
ENDBRANCH  48  49
ENDBRANCH  47  48
BRANCH  47  59
ATOM     59  C   TRP B   6       8.575  90.671  65.773  1.00  0.00     0.241 C 
ATOM     60  O   TRP B   6       8.020  91.767  65.860  1.00  0.00    -0.271 OA
ATOM     61  N   VAL B   7       8.469  89.728  66.704  1.00  6.11    -0.344 N 
ATOM     62  H   VAL B   7       8.934  88.875  66.575  1.00  0.23     0.163 HD
BRANCH  61  63
ATOM     63  CA  VAL B   7       7.678  89.929  67.911  1.00  5.65     0.189 C 
BRANCH  63  64
ATOM     64  CB  VAL B   7       6.988  88.623  68.350  1.00  1.15     0.010 C 
ATOM     65  CG1 VAL B   7       5.882  88.250  67.374  1.00  4.96     0.012 C 
ATOM     66  CG2 VAL B   7       8.001  87.495  68.474  1.00  9.83     0.012 C 
ENDBRANCH  63  64
BRANCH  63  67
ATOM     67  C   VAL B   7       8.544  90.445  69.057  1.00  4.44     0.197 C 
ATOM     68  OXT VAL B   7       7.991  90.705  70.145  1.00  0.00    -0.646 OA
ATOM     69  O   VAL B   7       9.768  90.583  68.855  1.00  0.00    -0.646 OA
ENDBRANCH  63  67
ENDBRANCH  61  63
ENDBRANCH  47  59
ENDBRANCH  44  47
ENDBRANCH  42  43
BRANCH  42  70
ATOM     70  CB  THR B   5       8.038  88.389  61.056  1.00  4.05     0.146 C 
ATOM     71  CG2 THR B   5       7.790  87.393  59.944  1.00  3.72     0.042 C 
BRANCH  70  72
ATOM     72  OG1 THR B   5       7.591  89.655  60.605  1.00  7.31    -0.393 OA
ATOM     73  HG1 THR B   5       7.180  90.128  61.332  1.00  0.23     0.210 HD
ENDBRANCH  70  72
ENDBRANCH  42  70
ENDBRANCH  39  42
ENDBRANCH   1  38
TORSDOF 26
ENDMDL
MODEL 2
REMARK VINA RESULT:      -7.1      2.218      5.290
REMARK  26 active torsions:
REMARK  status: ('A' for Active; 'I' for Inactive)
REMARK    1  A    between atoms: N_1  and  CA_2 
REMARK    2  A    between atoms: CA_2  and  CB_5 
REMARK    3  A    between atoms: CA_2  and  C_3 
REMARK       I    between atoms: C_3  and  N_12 
REMARK    4  A    between atoms: CB_5  and  OG_6 
REMARK    5  A    between atoms: CA_9  and  N_12 
REMARK    6  A    between atoms: CA_9  and  C_10 
REMARK       I    between atoms: C_10  and  N_27 
REMARK    7  A    between atoms: CA_14  and  N_27 
REMARK    8  A    between atoms: CA_14  and  CB_16 
REMARK    9  A    between atoms: CA_14  and  C_15 
REMARK       I    between atoms: C_15  and  N_36 
REMARK   10  A    between atoms: CB_16  and  CG_17 
REMARK   11  A    between atoms: CA_30  and  CB_32 
REMARK   12  A    between atoms: CA_30  and  N_36 
REMARK   13  A    between atoms: CA_30  and  C_31 
REMARK       I    between atoms: C_31  and  N_46 
REMARK   14  A    between atoms: CB_32  and  CG_33 
REMARK   15  A    between atoms: CG_33  and  CD_34 
REMARK   16  A    between atoms: CA_40  and  N_46 
REMARK   17  A    between atoms: CA_40  and  C_41 
REMARK   18  A    between atoms: CA_40  and  CB_42 
REMARK       I    between atoms: C_41  and  N_62 
REMARK   19  A    between atoms: CB_42  and  OG1_48 
REMARK   20  A    between atoms: CA_49  and  N_62 
REMARK   21  A    between atoms: CA_49  and  CB_51 
REMARK   22  A    between atoms: CA_49  and  C_50 
REMARK       I    between atoms: C_50  and  N_71 
REMARK   23  A    between atoms: CB_51  and  CG_52 
REMARK   24  A    between atoms: CA_65  and  CB_67 
REMARK   25  A    between atoms: CA_65  and  C_66 
REMARK   26  A    between atoms: CA_65  and  N_71 
ROOT
ATOM      1  CA  GLU B   4       3.004  87.287  62.368  1.00  0.00     0.177 C 
ENDROOT
BRANCH   1   2
ATOM      2  CB  GLU B   4       1.909  87.503  61.321  1.00  0.00     0.045 C 
BRANCH   2   3
ATOM      3  CG  GLU B   4       1.818  88.938  60.830  1.00  0.00     0.116 C 
BRANCH   3   4
ATOM      4  CD  GLU B   4       1.862  89.044  59.317  1.00  0.00     0.172 C 
ATOM      5  OE1 GLU B   4       2.429  88.136  58.675  1.00  0.00    -0.648 OA
ATOM      6  OE2 GLU B   4       1.328  90.034  58.776  1.00  0.00    -0.648 OA
ENDBRANCH   3   4
ENDBRANCH   2   3
ENDBRANCH   1   2
BRANCH   1   7
ATOM      7  N   GLU B   4       3.297  88.536  63.068  1.00  0.00    -0.346 N 
ATOM      8  H   GLU B   4       3.766  89.253  62.592  1.00  0.23     0.163 HD
ATOM      9  C   TRP B   3       2.943  88.717  64.337  1.00  0.00     0.241 C 
ATOM     10  O   TRP B   3       2.353  87.858  64.992  1.00  0.00    -0.271 OA
BRANCH   9  11
ATOM     11  CA  TRP B   3       3.305  90.061  64.962  1.00  0.00     0.181 C 
BRANCH  11  12
ATOM     12  N   TRP B   3       3.242  89.998  66.419  1.00  0.00    -0.346 N 
ATOM     13  H   TRP B   3       3.666  89.245  66.884  1.00  0.23     0.163 HD
ATOM     14  C   GLY B   2       2.616  90.931  67.131  1.00  0.00     0.236 C 
ATOM     15  O   GLY B   2       2.056  91.900  66.622  1.00  0.00    -0.272 OA
BRANCH  14  16
ATOM     16  CA  GLY B   2       2.620  90.744  68.637  1.00  0.00     0.225 C 
BRANCH  16  17
ATOM     17  N   GLY B   2       3.223  89.487  69.040  1.00  0.00    -0.350 N 
ATOM     18  C   SER B   1       2.476  88.476  69.507  1.00  0.00     0.256 C 
ATOM     19  O   SER B   1       1.255  88.573  69.648  1.00  0.00    -0.271 OA
ATOM     20  H   GLY B   2       4.192  89.363  68.961  1.00  0.23     0.163 HD
BRANCH  18  21
ATOM     21  CA  SER B   1       3.241  87.232  69.894  1.00  0.00     0.373 C 
BRANCH  21  22
ATOM     22  N   SER B   1       2.577  86.529  70.988  1.00  0.00     0.314 N 
ATOM     23  H   SER B   1       3.308  86.111  71.636  1.00  0.00     0.359 HD
ENDBRANCH  21  22
BRANCH  21  24
ATOM     24  CB  SER B   1       3.450  86.291  68.681  1.00  0.00     0.212 C 
BRANCH  24  25
ATOM     25  OG  SER B   1       3.064  86.888  67.439  1.00  0.00    -0.398 OA
ATOM     26  HG  SER B   1       2.778  87.785  67.629  1.00  0.00     0.209 HD
ENDBRANCH  24  25
ENDBRANCH  21  24
ENDBRANCH  18  21
ENDBRANCH  16  17
ENDBRANCH  14  16
ENDBRANCH  11  12
BRANCH  11  27
ATOM     27  CB  TRP B   3       4.699  90.500  64.489  1.00  0.00     0.075 C 
BRANCH  27  28
ATOM     28  CG  TRP B   3       4.715  91.822  63.780  1.00  0.00    -0.028 A 
ATOM     29  CD1 TRP B   3       4.774  93.059  64.355  1.00  0.00     0.096 A 
ATOM     30  NE1 TRP B   3       4.762  94.033  63.384  1.00  0.00    -0.365 N 
ATOM     31  CE2 TRP B   3       4.692  93.432  62.154  1.00  0.00     0.042 A 
ATOM     32  HE1 TRP B   3       4.799  94.999  63.547  1.00  0.23     0.165 HD
ATOM     33  CZ2 TRP B   3       4.656  93.996  60.881  1.00  0.00     0.030 A 
ATOM     34  CD2 TRP B   3       4.660  92.040  62.365  1.00  0.00    -0.002 A 
ATOM     35  CH2 TRP B   3       4.586  93.143  59.814  1.00  0.00     0.002 A 
ATOM     36  CZ3 TRP B   3       4.550  91.755  59.991  1.00  0.00     0.001 A 
ATOM     37  CE3 TRP B   3       4.586  91.195  61.253  1.00  0.00     0.014 A 
ENDBRANCH  27  28
ENDBRANCH  11  27
ENDBRANCH   9  11
ENDBRANCH   1   7
BRANCH   1  38
ATOM     38  C   GLU B   4       4.257  86.734  61.695  1.00  0.00     0.241 C 
ATOM     39  N   THR B   5       5.220  87.614  61.436  1.00  7.70    -0.344 N 
ATOM     40  H   THR B   5       5.084  88.553  61.681  1.00  0.23     0.163 HD
ATOM     41  O   GLU B   4       4.349  85.537  61.422  1.00  0.00    -0.271 OA
BRANCH  39  42
ATOM     42  CA  THR B   5       6.473  87.221  60.799  1.00  7.88     0.205 C 
BRANCH  42  43
ATOM     43  C   THR B   5       7.664  87.809  61.549  1.00  7.05     0.243 C 
ATOM     44  N   TRP B   6       7.481  88.057  62.841  1.00  0.00    -0.346 N 
ATOM     45  H   TRP B   6       6.613  87.857  63.249  1.00  0.23     0.163 HD
ATOM     46  O   THR B   5       8.725  88.035  60.968  1.00  6.06    -0.271 OA
BRANCH  44  47
ATOM     47  CA  TRP B   6       8.540  88.623  63.667  1.00  0.00     0.181 C 
BRANCH  47  48
ATOM     48  CB  TRP B   6       8.429  90.148  63.697  1.00  0.00     0.075 C 
BRANCH  48  49
ATOM     49  CG  TRP B   6       9.734  90.823  63.989  1.00  0.00    -0.028 A 
ATOM     50  CD2 TRP B   6       9.920  92.178  64.415  1.00  0.00    -0.002 A 
ATOM     51  CE2 TRP B   6      11.305  92.378  64.574  1.00  0.00     0.042 A 
ATOM     52  CE3 TRP B   6       9.051  93.241  64.676  1.00  0.00     0.014 A 
ATOM     53  CZ2 TRP B   6      11.838  93.597  64.984  1.00  0.00     0.030 A 
ATOM     54  NE1 TRP B   6      11.930  91.199  64.260  1.00  0.00    -0.365 N 
ATOM     55  CH2 TRP B   6      10.965  94.621  65.233  1.00  0.00     0.002 A 
ATOM     56  CZ3 TRP B   6       9.584  94.452  65.083  1.00  0.00     0.001 A 
ATOM     57  HE1 TRP B   6      12.898  91.043  64.281  1.00  0.23     0.165 HD
ATOM     58  CD1 TRP B   6      10.979  90.271  63.909  1.00  0.00     0.096 A 
ENDBRANCH  48  49
ENDBRANCH  47  48
BRANCH  47  59
ATOM     59  C   TRP B   6       8.483  88.063  65.085  1.00  0.00     0.241 C 
ATOM     60  O   TRP B   6       8.888  86.927  65.332  1.00  0.00    -0.271 OA
ATOM     61  N   VAL B   7       7.980  88.873  66.013  1.00  6.11    -0.344 N 
ATOM     62  H   VAL B   7       7.676  89.766  65.752  1.00  0.23     0.163 HD
BRANCH  61  63
ATOM     63  CA  VAL B   7       7.872  88.464  67.408  1.00  5.65     0.189 C 
BRANCH  63  64
ATOM     64  CB  VAL B   7       8.842  89.263  68.299  1.00  1.15     0.010 C 
ATOM     65  CG1 VAL B   7      10.147  88.502  68.484  1.00  4.96     0.012 C 
ATOM     66  CG2 VAL B   7       9.101  90.642  67.712  1.00  9.83     0.012 C 
ENDBRANCH  63  64
BRANCH  63  67
ATOM     67  C   VAL B   7       6.449  88.650  67.927  1.00  4.44     0.197 C 
ATOM     68  OXT VAL B   7       6.293  88.979  69.120  1.00  0.00    -0.646 OA
ATOM     69  O   VAL B   7       5.503  88.466  67.133  1.00  0.00    -0.646 OA
ENDBRANCH  63  67
ENDBRANCH  61  63
ENDBRANCH  47  59
ENDBRANCH  44  47
ENDBRANCH  42  43
BRANCH  42  70
ATOM     70  CB  THR B   5       6.495  87.683  59.341  1.00  4.05     0.146 C 
ATOM     71  CG2 THR B   5       6.869  86.583  58.371  1.00  3.72     0.042 C 
BRANCH  70  72
ATOM     72  OG1 THR B   5       5.227  88.182  58.955  1.00  7.31    -0.393 OA
ATOM     73  HG1 THR B   5       5.017  87.873  58.071  1.00  0.23     0.210 HD
ENDBRANCH  70  72
ENDBRANCH  42  70
ENDBRANCH  39  42
ENDBRANCH   1  38
TORSDOF 26
ENDMDL
MODEL 3
REMARK VINA RESULT:      -6.8      1.914      2.819
REMARK  26 active torsions:
REMARK  status: ('A' for Active; 'I' for Inactive)
REMARK    1  A    between atoms: N_1  and  CA_2 
REMARK    2  A    between atoms: CA_2  and  CB_5 
REMARK    3  A    between atoms: CA_2  and  C_3 
REMARK       I    between atoms: C_3  and  N_12 
REMARK    4  A    between atoms: CB_5  and  OG_6 
REMARK    5  A    between atoms: CA_9  and  N_12 
REMARK    6  A    between atoms: CA_9  and  C_10 
REMARK       I    between atoms: C_10  and  N_27 
REMARK    7  A    between atoms: CA_14  and  N_27 
REMARK    8  A    between atoms: CA_14  and  CB_16 
REMARK    9  A    between atoms: CA_14  and  C_15 
REMARK       I    between atoms: C_15  and  N_36 
REMARK   10  A    between atoms: CB_16  and  CG_17 
REMARK   11  A    between atoms: CA_30  and  CB_32 
REMARK   12  A    between atoms: CA_30  and  N_36 
REMARK   13  A    between atoms: CA_30  and  C_31 
REMARK       I    between atoms: C_31  and  N_46 
REMARK   14  A    between atoms: CB_32  and  CG_33 
REMARK   15  A    between atoms: CG_33  and  CD_34 
REMARK   16  A    between atoms: CA_40  and  N_46 
REMARK   17  A    between atoms: CA_40  and  C_41 
REMARK   18  A    between atoms: CA_40  and  CB_42 
REMARK       I    between atoms: C_41  and  N_62 
REMARK   19  A    between atoms: CB_42  and  OG1_48 
REMARK   20  A    between atoms: CA_49  and  N_62 
REMARK   21  A    between atoms: CA_49  and  CB_51 
REMARK   22  A    between atoms: CA_49  and  C_50 
REMARK       I    between atoms: C_50  and  N_71 
REMARK   23  A    between atoms: CB_51  and  CG_52 
REMARK   24  A    between atoms: CA_65  and  CB_67 
REMARK   25  A    between atoms: CA_65  and  C_66 
REMARK   26  A    between atoms: CA_65  and  N_71 
ROOT
ATOM      1  CA  GLU B   4       3.228  86.919  62.616  1.00  0.00     0.177 C 
ENDROOT
BRANCH   1   2
ATOM      2  CB  GLU B   4       2.146  87.310  61.608  1.00  0.00     0.045 C 
BRANCH   2   3
ATOM      3  CG  GLU B   4       1.756  86.178  60.672  1.00  0.00     0.116 C 
BRANCH   3   4
ATOM      4  CD  GLU B   4       2.119  86.462  59.226  1.00  0.00     0.172 C 
ATOM      5  OE1 GLU B   4       1.488  87.354  58.621  1.00  0.00    -0.648 OA
ATOM      6  OE2 GLU B   4       3.032  85.792  58.701  1.00  0.00    -0.648 OA
ENDBRANCH   3   4
ENDBRANCH   2   3
ENDBRANCH   1   2
BRANCH   1   7
ATOM      7  N   GLU B   4       3.361  87.945  63.649  1.00  0.00    -0.346 N 
ATOM      8  H   GLU B   4       3.595  87.677  64.562  1.00  0.23     0.163 HD
ATOM      9  C   TRP B   3       3.169  89.232  63.374  1.00  0.00     0.241 C 
ATOM     10  O   TRP B   3       2.872  89.635  62.250  1.00  0.00    -0.271 OA
BRANCH   9  11
ATOM     11  CA  TRP B   3       3.333  90.209  64.534  1.00  0.00     0.181 C 
BRANCH  11  12
ATOM     12  N   TRP B   3       3.945  91.457  64.088  1.00  0.00    -0.346 N 
ATOM     13  H   TRP B   3       3.742  91.795  63.189  1.00  0.23     0.163 HD
ATOM     14  C   GLY B   2       4.777  92.144  64.866  1.00  0.00     0.236 C 
ATOM     15  O   GLY B   2       5.085  91.783  66.001  1.00  0.00    -0.272 OA
BRANCH  14  16
ATOM     16  CA  GLY B   2       5.347  93.421  64.280  1.00  0.00     0.225 C 
BRANCH  16  17
ATOM     17  N   GLY B   2       5.733  93.272  62.888  1.00  0.00    -0.350 N 
ATOM     18  C   SER B   1       5.118  93.964  61.918  1.00  0.00     0.256 C 
ATOM     19  O   SER B   1       4.181  94.729  62.152  1.00  0.00    -0.271 OA
ATOM     20  H   GLY B   2       6.464  92.665  62.648  1.00  0.23     0.163 HD
BRANCH  18  21
ATOM     21  CA  SER B   1       5.621  93.702  60.519  1.00  0.00     0.373 C 
BRANCH  21  22
ATOM     22  N   SER B   1       7.069  93.516  60.509  1.00  0.00     0.314 N 
ATOM     23  H   SER B   1       7.496  94.009  61.349  1.00  0.00     0.359 HD
ENDBRANCH  21  22
BRANCH  21  24
ATOM     24  CB  SER B   1       4.906  92.487  59.874  1.00  0.00     0.212 C 
BRANCH  24  25
ATOM     25  OG  SER B   1       3.998  91.837  60.768  1.00  0.00    -0.398 OA
ATOM     26  HG  SER B   1       3.366  91.351  60.231  1.00  0.00     0.209 HD
ENDBRANCH  24  25
ENDBRANCH  21  24
ENDBRANCH  18  21
ENDBRANCH  16  17
ENDBRANCH  14  16
ENDBRANCH  11  12
BRANCH  11  27
ATOM     27  CB  TRP B   3       1.973  90.468  65.199  1.00  0.00     0.075 C 
BRANCH  27  28
ATOM     28  CG  TRP B   3       2.025  90.521  66.697  1.00  0.00    -0.028 A 
ATOM     29  CD1 TRP B   3       2.689  89.661  67.524  1.00  0.00     0.096 A 
ATOM     30  NE1 TRP B   3       2.497  90.025  68.837  1.00  0.00    -0.365 N 
ATOM     31  CE2 TRP B   3       1.696  91.135  68.877  1.00  0.00     0.042 A 
ATOM     32  HE1 TRP B   3       2.874  89.563  69.615  1.00  0.23     0.165 HD
ATOM     33  CZ2 TRP B   3       1.228  91.866  69.967  1.00  0.00     0.030 A 
ATOM     34  CD2 TRP B   3       1.378  91.475  67.548  1.00  0.00    -0.002 A 
ATOM     35  CH2 TRP B   3       0.432  92.948  69.708  1.00  0.00     0.002 A 
ATOM     36  CZ3 TRP B   3       0.097  93.310  68.399  1.00  0.00     0.001 A 
ATOM     37  CE3 TRP B   3       0.561  92.586  67.316  1.00  0.00     0.014 A 
ENDBRANCH  27  28
ENDBRANCH  11  27
ENDBRANCH   9  11
ENDBRANCH   1   7
BRANCH   1  38
ATOM     38  C   GLU B   4       4.553  86.702  61.892  1.00  0.00     0.241 C 
ATOM     39  N   THR B   5       5.275  87.793  61.652  1.00  7.70    -0.344 N 
ATOM     40  H   THR B   5       4.932  88.664  61.944  1.00  0.23     0.163 HD
ATOM     41  O   GLU B   4       4.913  85.572  61.561  1.00  0.00    -0.271 OA
BRANCH  39  42
ATOM     42  CA  THR B   5       6.565  87.731  60.970  1.00  7.88     0.205 C 
BRANCH  42  43
ATOM     43  C   THR B   5       7.683  88.210  61.891  1.00  7.05     0.243 C 
ATOM     44  N   TRP B   6       7.304  88.778  63.030  1.00  0.00    -0.346 N 
ATOM     45  H   TRP B   6       6.348  88.863  63.228  1.00  0.23     0.163 HD
ATOM     46  O   THR B   5       8.864  88.070  61.573  1.00  6.06    -0.271 OA
BRANCH  44  47
ATOM     47  CA  TRP B   6       8.276  89.280  63.993  1.00  0.00     0.181 C 
BRANCH  47  48
ATOM     48  CB  TRP B   6       7.976  90.740  64.333  1.00  0.00     0.075 C 
BRANCH  48  49
ATOM     49  CG  TRP B   6       9.162  91.638  64.156  1.00  0.00    -0.028 A 
ATOM     50  CD2 TRP B   6      10.417  91.543  64.840  1.00  0.00    -0.002 A 
ATOM     51  CE2 TRP B   6      11.235  92.582  64.356  1.00  0.00     0.042 A 
ATOM     52  CE3 TRP B   6      10.928  90.683  65.815  1.00  0.00     0.014 A 
ATOM     53  CZ2 TRP B   6      12.534  92.780  64.814  1.00  0.00     0.030 A 
ATOM     54  NE1 TRP B   6      10.510  93.275  63.420  1.00  0.00    -0.365 N 
ATOM     55  CH2 TRP B   6      13.009  91.924  65.769  1.00  0.00     0.002 A 
ATOM     56  CZ3 TRP B   6      12.219  90.882  66.269  1.00  0.00     0.001 A 
ATOM     57  HE1 TRP B   6      10.828  94.053  62.915  1.00  0.23     0.165 HD
ATOM     58  CD1 TRP B   6       9.267  92.701  63.307  1.00  0.00     0.096 A 
ENDBRANCH  48  49
ENDBRANCH  47  48
BRANCH  47  59
ATOM     59  C   TRP B   6       8.274  88.433  65.262  1.00  0.00     0.241 C 
ATOM     60  O   TRP B   6       8.693  87.275  65.248  1.00  0.00    -0.271 OA
ATOM     61  N   VAL B   7       7.804  89.023  66.357  1.00  6.11    -0.344 N 
ATOM     62  H   VAL B   7       7.487  89.948  66.302  1.00  0.23     0.163 HD
BRANCH  61  63
ATOM     63  CA  VAL B   7       7.750  88.328  67.637  1.00  5.65     0.189 C 
BRANCH  63  64
ATOM     64  CB  VAL B   7       8.657  89.009  68.680  1.00  1.15     0.010 C 
ATOM     65  CG1 VAL B   7      10.034  88.362  68.694  1.00  4.96     0.012 C 
ATOM     66  CG2 VAL B   7       8.765  90.502  68.405  1.00  9.83     0.012 C 
ENDBRANCH  63  64
BRANCH  63  67
ATOM     67  C   VAL B   7       6.323  88.276  68.175  1.00  4.44     0.197 C 
ATOM     68  OXT VAL B   7       6.074  88.857  69.251  1.00  0.00    -0.646 OA
ATOM     69  O   VAL B   7       5.466  87.653  67.513  1.00  0.00    -0.646 OA
ENDBRANCH  63  67
ENDBRANCH  61  63
ENDBRANCH  47  59
ENDBRANCH  44  47
ENDBRANCH  42  43
BRANCH  42  70
ATOM     70  CB  THR B   5       6.534  88.583  59.700  1.00  4.05     0.146 C 
ATOM     71  CG2 THR B   5       5.135  88.836  59.184  1.00  3.72     0.042 C 
BRANCH  70  72
ATOM     72  OG1 THR B   5       7.143  89.842  59.926  1.00  7.31    -0.393 OA
ATOM     73  HG1 THR B   5       7.557  90.147  59.117  1.00  0.23     0.210 HD
ENDBRANCH  70  72
ENDBRANCH  42  70
ENDBRANCH  39  42
ENDBRANCH   1  38
TORSDOF 26
ENDMDL
MODEL 4
REMARK VINA RESULT:      -6.6      1.872      2.775
REMARK  26 active torsions:
REMARK  status: ('A' for Active; 'I' for Inactive)
REMARK    1  A    between atoms: N_1  and  CA_2 
REMARK    2  A    between atoms: CA_2  and  CB_5 
REMARK    3  A    between atoms: CA_2  and  C_3 
REMARK       I    between atoms: C_3  and  N_12 
REMARK    4  A    between atoms: CB_5  and  OG_6 
REMARK    5  A    between atoms: CA_9  and  N_12 
REMARK    6  A    between atoms: CA_9  and  C_10 
REMARK       I    between atoms: C_10  and  N_27 
REMARK    7  A    between atoms: CA_14  and  N_27 
REMARK    8  A    between atoms: CA_14  and  CB_16 
REMARK    9  A    between atoms: CA_14  and  C_15 
REMARK       I    between atoms: C_15  and  N_36 
REMARK   10  A    between atoms: CB_16  and  CG_17 
REMARK   11  A    between atoms: CA_30  and  CB_32 
REMARK   12  A    between atoms: CA_30  and  N_36 
REMARK   13  A    between atoms: CA_30  and  C_31 
REMARK       I    between atoms: C_31  and  N_46 
REMARK   14  A    between atoms: CB_32  and  CG_33 
REMARK   15  A    between atoms: CG_33  and  CD_34 
REMARK   16  A    between atoms: CA_40  and  N_46 
REMARK   17  A    between atoms: CA_40  and  C_41 
REMARK   18  A    between atoms: CA_40  and  CB_42 
REMARK       I    between atoms: C_41  and  N_62 
REMARK   19  A    between atoms: CB_42  and  OG1_48 
REMARK   20  A    between atoms: CA_49  and  N_62 
REMARK   21  A    between atoms: CA_49  and  CB_51 
REMARK   22  A    between atoms: CA_49  and  C_50 
REMARK       I    between atoms: C_50  and  N_71 
REMARK   23  A    between atoms: CB_51  and  CG_52 
REMARK   24  A    between atoms: CA_65  and  CB_67 
REMARK   25  A    between atoms: CA_65  and  C_66 
REMARK   26  A    between atoms: CA_65  and  N_71 
ROOT
ATOM      1  CA  GLU B   4       2.903  86.710  62.894  1.00  0.00     0.177 C 
ENDROOT
BRANCH   1   2
ATOM      2  CB  GLU B   4       1.512  86.523  62.288  1.00  0.00     0.045 C 
BRANCH   2   3
ATOM      3  CG  GLU B   4       0.829  85.238  62.726  1.00  0.00     0.116 C 
BRANCH   3   4
ATOM      4  CD  GLU B   4       1.217  84.047  61.868  1.00  0.00     0.172 C 
ATOM      5  OE1 GLU B   4       1.600  84.258  60.699  1.00  0.00    -0.648 OA
ATOM      6  OE2 GLU B   4       1.137  82.906  62.368  1.00  0.00    -0.648 OA
ENDBRANCH   3   4
ENDBRANCH   2   3
ENDBRANCH   1   2
BRANCH   1   7
ATOM      7  N   GLU B   4       2.855  87.654  64.009  1.00  0.00    -0.346 N 
ATOM      8  H   GLU B   4       3.205  87.381  64.883  1.00  0.23     0.163 HD
ATOM      9  C   TRP B   3       2.344  88.873  63.861  1.00  0.00     0.241 C 
ATOM     10  O   TRP B   3       1.887  89.278  62.793  1.00  0.00    -0.271 OA
BRANCH   9  11
ATOM     11  CA  TRP B   3       2.346  89.768  65.097  1.00  0.00     0.181 C 
BRANCH  11  12
ATOM     12  N   TRP B   3       3.107  90.991  64.859  1.00  0.00    -0.346 N 
ATOM     13  H   TRP B   3       2.625  91.828  64.688  1.00  0.23     0.163 HD
ATOM     14  C   GLY B   2       4.437  90.997  64.861  1.00  0.00     0.236 C 
ATOM     15  O   GLY B   2       5.111  89.988  65.062  1.00  0.00    -0.272 OA
BRANCH  14  16
ATOM     16  CA  GLY B   2       5.105  92.332  64.596  1.00  0.00     0.225 C 
BRANCH  16  17
ATOM     17  N   GLY B   2       4.419  93.105  63.575  1.00  0.00    -0.350 N 
ATOM     18  C   SER B   1       5.025  93.427  62.424  1.00  0.00     0.256 C 
ATOM     19  O   SER B   1       6.195  93.116  62.188  1.00  0.00    -0.271 OA
ATOM     20  H   GLY B   2       3.493  93.389  63.719  1.00  0.23     0.163 HD
BRANCH  18  21
ATOM     21  CA  SER B   1       4.192  94.238  61.460  1.00  0.00     0.373 C 
BRANCH  21  22
ATOM     22  N   SER B   1       4.055  95.617  61.919  1.00  0.00     0.314 N 
ATOM     23  H   SER B   1       3.170  95.711  62.501  1.00  0.00     0.359 HD
ENDBRANCH  21  22
BRANCH  21  24
ATOM     24  CB  SER B   1       4.774  94.192  60.024  1.00  0.00     0.212 C 
BRANCH  24  25
ATOM     25  OG  SER B   1       6.053  94.827  59.920  1.00  0.00    -0.398 OA
ATOM     26  HG  SER B   1       5.897  95.771  59.839  1.00  0.00     0.209 HD
ENDBRANCH  24  25
ENDBRANCH  21  24
ENDBRANCH  18  21
ENDBRANCH  16  17
ENDBRANCH  14  16
ENDBRANCH  11  12
BRANCH  11  27
ATOM     27  CB  TRP B   3       0.903  90.088  65.515  1.00  0.00     0.075 C 
BRANCH  27  28
ATOM     28  CG  TRP B   3       0.799  90.952  66.738  1.00  0.00    -0.028 A 
ATOM     29  CD1 TRP B   3       0.134  92.139  66.848  1.00  0.00     0.096 A 
ATOM     30  NE1 TRP B   3       0.270  92.641  68.121  1.00  0.00    -0.365 N 
ATOM     31  CE2 TRP B   3       1.035  91.777  68.859  1.00  0.00     0.042 A 
ATOM     32  HE1 TRP B   3      -0.120  93.480  68.445  1.00  0.23     0.165 HD
ATOM     33  CZ2 TRP B   3       1.444  91.852  70.189  1.00  0.00     0.030 A 
ATOM     34  CD2 TRP B   3       1.388  90.702  68.020  1.00  0.00    -0.002 A 
ATOM     35  CH2 TRP B   3       2.215  90.830  70.671  1.00  0.00     0.002 A 
ATOM     36  CZ3 TRP B   3       2.584  89.749  69.862  1.00  0.00     0.001 A 
ATOM     37  CE3 TRP B   3       2.179  89.674  68.543  1.00  0.00     0.014 A 
ENDBRANCH  27  28
ENDBRANCH  11  27
ENDBRANCH   9  11
ENDBRANCH   1   7
BRANCH   1  38
ATOM     38  C   GLU B   4       3.873  87.188  61.818  1.00  0.00     0.241 C 
ATOM     39  N   THR B   5       4.770  88.094  62.199  1.00  7.70    -0.344 N 
ATOM     40  H   THR B   5       4.766  88.406  63.128  1.00  0.23     0.163 HD
ATOM     41  O   GLU B   4       3.813  86.743  60.672  1.00  0.00    -0.271 OA
BRANCH  39  42
ATOM     42  CA  THR B   5       5.760  88.636  61.273  1.00  7.88     0.205 C 
BRANCH  42  43
ATOM     43  C   THR B   5       7.135  88.692  61.930  1.00  7.05     0.243 C 
ATOM     44  N   TRP B   6       7.211  89.348  63.082  1.00  0.00    -0.346 N 
ATOM     45  H   TRP B   6       6.402  89.758  63.454  1.00  0.23     0.163 HD
ATOM     46  O   THR B   5       8.108  88.153  61.401  1.00  6.06    -0.271 OA
BRANCH  44  47
ATOM     47  CA  TRP B   6       8.469  89.476  63.807  1.00  0.00     0.181 C 
BRANCH  47  48
ATOM     48  CB  TRP B   6       8.779  90.951  64.070  1.00  0.00     0.075 C 
BRANCH  48  49
ATOM     49  CG  TRP B   6      10.246  91.253  64.041  1.00  0.00    -0.028 A 
ATOM     50  CD2 TRP B   6      10.852  92.545  63.914  1.00  0.00    -0.002 A 
ATOM     51  CE2 TRP B   6      12.247  92.355  63.942  1.00  0.00     0.042 A 
ATOM     52  CE3 TRP B   6      10.351  93.842  63.777  1.00  0.00     0.014 A 
ATOM     53  CZ2 TRP B   6      13.144  93.415  63.840  1.00  0.00     0.030 A 
ATOM     54  NE1 TRP B   6      12.478  91.011  64.080  1.00  0.00    -0.365 N 
ATOM     55  CH2 TRP B   6      12.626  94.675  63.707  1.00  0.00     0.002 A 
ATOM     56  CZ3 TRP B   6      11.244  94.894  63.676  1.00  0.00     0.001 A 
ATOM     57  HE1 TRP B   6      13.359  90.585  64.129  1.00  0.23     0.165 HD
ATOM     58  CD1 TRP B   6      11.271  90.356  64.139  1.00  0.00     0.096 A 
ENDBRANCH  48  49
ENDBRANCH  47  48
BRANCH  47  59
ATOM     59  C   TRP B   6       8.421  88.707  65.123  1.00  0.00     0.241 C 
ATOM     60  O   TRP B   6       8.816  87.542  65.188  1.00  0.00    -0.271 OA
ATOM     61  N   VAL B   7       7.937  89.369  66.170  1.00  6.11    -0.344 N 
ATOM     62  H   VAL B   7       7.640  90.295  66.053  1.00  0.23     0.163 HD
BRANCH  61  63
ATOM     63  CA  VAL B   7       7.839  88.752  67.487  1.00  5.65     0.189 C 
BRANCH  63  64
ATOM     64  CB  VAL B   7       8.893  89.328  68.452  1.00  1.15     0.010 C 
ATOM     65  CG1 VAL B   7       9.974  88.296  68.740  1.00  4.96     0.012 C 
ATOM     66  CG2 VAL B   7       9.502  90.602  67.885  1.00  9.83     0.012 C 
ENDBRANCH  63  64
BRANCH  63  67
ATOM     67  C   VAL B   7       6.450  88.954  68.087  1.00  4.44     0.197 C 
ATOM     68  OXT VAL B   7       6.170  90.071  68.567  1.00  0.00    -0.646 OA
ATOM     69  O   VAL B   7       5.656  87.990  68.070  1.00  0.00    -0.646 OA
ENDBRANCH  63  67
ENDBRANCH  61  63
ENDBRANCH  47  59
ENDBRANCH  44  47
ENDBRANCH  42  43
BRANCH  42  70
ATOM     70  CB  THR B   5       5.346  90.035  60.812  1.00  4.05     0.146 C 
ATOM     71  CG2 THR B   5       4.808  90.062  59.398  1.00  3.72     0.042 C 
BRANCH  70  72
ATOM     72  OG1 THR B   5       4.345  90.566  61.662  1.00  7.31    -0.393 OA
ATOM     73  HG1 THR B   5       4.060  89.892  62.282  1.00  0.23     0.210 HD
ENDBRANCH  70  72
ENDBRANCH  42  70
ENDBRANCH  39  42
ENDBRANCH   1  38
TORSDOF 26
ENDMDL
