REMARK  24 active torsions:
REMARK  status: ('A' for Active; 'I' for Inactive)
REMARK    1  A    between atoms: N_1  and  CA_2 
REMARK    2  A    between atoms: CA_2  and  C_3 
REMARK       I    between atoms: C_3  and  N_9 
REMARK    3  A    between atoms: CA_6  and  N_9 
REMARK    4  A    between atoms: CA_6  and  C_7 
REMARK       I    between atoms: C_7  and  N_24 
REMARK    5  A    between atoms: CA_11  and  CB_13 
REMARK    6  A    between atoms: CA_11  and  N_24 
REMARK    7  A    between atoms: CA_11  and  C_12 
REMARK       I    between atoms: C_12  and  N_33 
REMARK    8  A    between atoms: CB_13  and  CG_14 
REMARK    9  A    between atoms: CA_27  and  CB_29 
REMARK   10  A    between atoms: CA_27  and  N_33 
REMARK   11  A    between atoms: CA_27  and  C_28 
REMARK       I    between atoms: C_28  and  N_43 
REMARK   12  A    between atoms: CB_29  and  CG_30 
REMARK   13  A    between atoms: CG_30  and  CD_31 
REMARK   14  A    between atoms: CA_37  and  N_43 
REMARK   15  A    between atoms: CA_37  and  C_38 
REMARK   16  A    between atoms: CA_37  and  CB_39 
REMARK       I    between atoms: C_38  and  N_59 
REMARK   17  A    between atoms: CB_39  and  OG1_45 
REMARK   18  A    between atoms: CA_46  and  CB_48 
REMARK   19  A    between atoms: CA_46  and  N_59 
REMARK   20  A    between atoms: CA_46  and  C_47 
REMARK       I    between atoms: C_47  and  N_68 
REMARK   21  A    between atoms: CB_48  and  CG_49 
REMARK   22  A    between atoms: CA_62  and  CB_64 
REMARK   23  A    between atoms: CA_62  and  C_63 
REMARK   24  A    between atoms: CA_62  and  N_68 
ROOT
ATOM      1  C   GLU B   4       3.543  -0.948  -0.607  1.00  0.00     0.241 C 
ATOM      2  O   GLU B   4       3.056  -0.622   0.476  1.00  0.00    -0.271 OA
ATOM      3  H   THR B   5       4.944  -0.656  -2.002  1.00  0.23     0.163 HD
ATOM      4  N   THR B   5       4.607  -0.349  -1.134  1.00  7.70    -0.344 N 
ENDROOT
BRANCH   1   5
ATOM      5  CA  GLU B   4       2.935  -2.082  -1.427  1.00  0.00     0.177 C 
BRANCH   5   6
ATOM      6  CB  GLU B   4       1.619  -1.618  -2.053  1.00  0.00     0.045 C 
BRANCH   6   7
ATOM      7  CG  GLU B   4       0.498  -1.442  -1.042  1.00  0.00     0.116 C 
BRANCH   7   8
ATOM      8  CD  GLU B   4      -0.456  -2.621  -1.013  1.00  0.00     0.172 C 
ATOM      9  OE1 GLU B   4      -1.137  -2.858  -2.032  1.00  0.00    -0.648 OA
ATOM     10  OE2 GLU B   4      -0.521  -3.306   0.029  1.00  0.00    -0.648 OA
ENDBRANCH   7   8
ENDBRANCH   6   7
ENDBRANCH   5   6
BRANCH   5  11
ATOM     11  N   GLU B   4       2.719  -3.266  -0.598  1.00  0.00    -0.346 N 
ATOM     12  H   GLU B   4       1.805  -3.516  -0.349  1.00  0.23     0.163 HD
ATOM     13  C   TRP B   3       3.738  -4.008  -0.173  1.00  0.00     0.241 C 
ATOM     14  O   TRP B   3       4.909  -3.750  -0.448  1.00  0.00    -0.271 OA
BRANCH  13  15
ATOM     15  CA  TRP B   3       3.388  -5.218   0.688  1.00  0.00     0.181 C 
BRANCH  15  16
ATOM     16  CB  TRP B   3       2.953  -6.389  -0.205  1.00  0.00     0.075 C 
BRANCH  16  17
ATOM     17  CG  TRP B   3       1.526  -6.311  -0.663  1.00  0.00    -0.028 A 
ATOM     18  CD2 TRP B   3       1.046  -5.752  -1.892  1.00  0.00    -0.002 A 
ATOM     19  CE2 TRP B   3      -0.354  -5.903  -1.902  1.00  0.00     0.042 A 
ATOM     20  CE3 TRP B   3       1.663  -5.137  -2.986  1.00  0.00     0.014 A 
ATOM     21  NE1 TRP B   3      -0.709  -6.527  -0.735  1.00  0.00    -0.365 N 
ATOM     22  CZ2 TRP B   3      -1.145  -5.461  -2.960  1.00  0.00     0.030 A 
ATOM     23  HE1 TRP B   3      -1.622  -6.762  -0.467  1.00  0.23     0.165 HD
ATOM     24  CD1 TRP B   3       0.426  -6.770   0.003  1.00  0.00     0.096 A 
ATOM     25  CH2 TRP B   3      -0.513  -4.862  -4.015  1.00  0.00     0.002 A 
ATOM     26  CZ3 TRP B   3       0.877  -4.699  -4.035  1.00  0.00     0.001 A 
ENDBRANCH  16  17
ENDBRANCH  15  16
BRANCH  15  27
ATOM     27  N   TRP B   3       2.351  -4.888   1.662  1.00  0.00    -0.346 N 
ATOM     28  C   GLY B   2       2.027  -5.723   2.646  1.00  0.00     0.236 C 
ATOM     29  O   GLY B   2       2.568  -6.816   2.803  1.00  0.00    -0.272 OA
ATOM     30  H   TRP B   3       1.886  -4.027   1.592  1.00  0.23     0.163 HD
BRANCH  28  31
ATOM     31  CA  GLY B   2       0.937  -5.257   3.592  1.00  0.00     0.225 C 
BRANCH  31  32
ATOM     32  N   GLY B   2      -0.095  -6.259   3.790  1.00  0.00    -0.351 N 
ATOM     33  C   GLY B   1       0.098  -7.287   4.625  1.00  0.00     0.248 C 
ATOM     34  O   GLY B   1       1.152  -7.467   5.226  1.00  0.00    -0.272 OA
ATOM     35  H   GLY B   2      -0.951  -6.176   3.321  1.00  0.23     0.163 HD
BRANCH  33  36
ATOM     36  CA  GLY B   1      -1.047  -8.267   4.724  1.00  0.00     0.413 C 
BRANCH  36  37
ATOM     37  N   GLY B   1      -2.221  -7.640   5.323  1.00  0.00     0.306 N 
ATOM     38  H   GLY B   1      -1.999  -6.610   5.561  1.00  0.00     0.359 HD
ENDBRANCH  36  37
ENDBRANCH  33  36
ENDBRANCH  31  32
ENDBRANCH  28  31
ENDBRANCH  15  27
ENDBRANCH  13  15
ENDBRANCH   5  11
ENDBRANCH   1   5
BRANCH   4  39
ATOM     39  CA  THR B   5       5.286   0.753  -0.459  1.00  7.88     0.205 C 
BRANCH  39  40
ATOM     40  C   THR B   5       5.323   1.989  -1.352  1.00  7.05     0.243 C 
ATOM     41  N   TRP B   6       4.731   3.078  -0.874  1.00  0.00    -0.346 N 
ATOM     42  H   TRP B   6       4.307   3.044   0.009  1.00  0.23     0.163 HD
ATOM     43  O   THR B   5       5.874   1.955  -2.452  1.00  6.06    -0.271 OA
BRANCH  41  44
ATOM     44  CA  TRP B   6       4.694   4.322  -1.632  1.00  0.00     0.181 C 
BRANCH  44  45
ATOM     45  CB  TRP B   6       3.466   5.144  -1.238  1.00  0.00     0.075 C 
BRANCH  45  46
ATOM     46  CG  TRP B   6       2.176   4.494  -1.635  1.00  0.00    -0.028 A 
ATOM     47  CD2 TRP B   6       1.490   4.644  -2.884  1.00  0.00    -0.002 A 
ATOM     48  CE2 TRP B   6       0.330   3.849  -2.820  1.00  0.00     0.042 A 
ATOM     49  CE3 TRP B   6       1.744   5.374  -4.048  1.00  0.00     0.014 A 
ATOM     50  CZ2 TRP B   6      -0.572   3.764  -3.877  1.00  0.00     0.030 A 
ATOM     51  NE1 TRP B   6       0.312   3.244  -1.590  1.00  0.00    -0.365 N 
ATOM     52  CH2 TRP B   6      -0.300   4.489  -5.005  1.00  0.00     0.002 A 
ATOM     53  CZ3 TRP B   6       0.846   5.288  -5.097  1.00  0.00     0.001 A 
ATOM     54  HE1 TRP B   6      -0.381   2.631  -1.266  1.00  0.23     0.165 HD
ATOM     55  CD1 TRP B   6       1.424   3.637  -0.885  1.00  0.00     0.096 A 
ENDBRANCH  45  46
ENDBRANCH  44  45
BRANCH  44  56
ATOM     56  C   TRP B   6       5.965   5.135  -1.408  1.00  0.00     0.241 C 
ATOM     57  O   TRP B   6       6.227   5.604  -0.300  1.00  0.00    -0.271 OA
ATOM     58  N   VAL B   7       6.752   5.293  -2.468  1.00  6.11    -0.344 N 
ATOM     59  H   VAL B   7       6.488   4.893  -3.322  1.00  0.23     0.163 HD
BRANCH  58  60
ATOM     60  CA  VAL B   7       7.998   6.045  -2.391  1.00  5.65     0.189 C 
BRANCH  60  61
ATOM     61  CB  VAL B   7       9.053   5.476  -3.360  1.00  1.15     0.010 C 
ATOM     62  CG1 VAL B   7       9.474   4.078  -2.930  1.00  4.96     0.012 C 
ATOM     63  CG2 VAL B   7       8.523   5.465  -4.786  1.00  9.83     0.012 C 
ENDBRANCH  60  61
BRANCH  60  64
ATOM     64  C   VAL B   7       7.772   7.520  -2.710  1.00  4.44     0.197 C 
ATOM     65  OXT VAL B   7       6.958   7.813  -3.609  1.00  0.00    -0.646 OA
ATOM     66  O   VAL B   7       8.412   8.369  -2.055  1.00  0.00    -0.646 OA
ENDBRANCH  60  64
ENDBRANCH  58  60
ENDBRANCH  44  56
ENDBRANCH  41  44
ENDBRANCH  39  40
BRANCH  39  67
ATOM     67  CB  THR B   5       6.709   0.344  -0.075  1.00  4.05     0.146 C 
ATOM     68  CG2 THR B   5       7.356   1.289   0.914  1.00  3.72     0.042 C 
BRANCH  67  69
ATOM     69  OG1 THR B   5       6.720  -0.951   0.499  1.00  7.31    -0.393 OA
ATOM     70  HG1 THR B   5       6.777  -1.609  -0.197  1.00  0.23     0.210 HD
ENDBRANCH  67  69
ENDBRANCH  39  67
ENDBRANCH   4  39
TORSDOF 24
