REMARK  26 active torsions:
REMARK  status: ('A' for Active; 'I' for Inactive)
REMARK    1  A    between atoms: N_1  and  CA_2 
REMARK    2  A    between atoms: CA_2  and  CB_5 
REMARK    3  A    between atoms: CA_2  and  C_3 
REMARK       I    between atoms: C_3  and  N_16 
REMARK    4  A    between atoms: CB_5  and  CG_6 
REMARK    5  A    between atoms: CA_13  and  N_16 
REMARK    6  A    between atoms: CA_13  and  C_14 
REMARK       I    between atoms: C_14  and  N_31 
REMARK    7  A    between atoms: CA_18  and  CB_20 
REMARK    8  A    between atoms: CA_18  and  C_19 
REMARK    9  A    between atoms: CA_18  and  N_31 
REMARK       I    between atoms: C_19  and  N_40 
REMARK   10  A    between atoms: CB_20  and  CG_21 
REMARK   11  A    between atoms: CA_34  and  CB_36 
REMARK   12  A    between atoms: CA_34  and  N_40 
REMARK   13  A    between atoms: CA_34  and  C_35 
REMARK       I    between atoms: C_35  and  N_50 
REMARK   14  A    between atoms: CB_36  and  CG_37 
REMARK   15  A    between atoms: CG_37  and  CD_38 
REMARK   16  A    between atoms: CA_44  and  N_50 
REMARK   17  A    between atoms: CA_44  and  CB_46 
REMARK   18  A    between atoms: CA_44  and  C_45 
REMARK       I    between atoms: C_45  and  N_66 
REMARK   19  A    between atoms: CB_46  and  OG1_52 
REMARK   20  A    between atoms: CA_53  and  CB_55 
REMARK   21  A    between atoms: CA_53  and  N_66 
REMARK   22  A    between atoms: CA_53  and  C_54 
REMARK       I    between atoms: C_54  and  N_75 
REMARK   23  A    between atoms: CB_55  and  CG_56 
REMARK   24  A    between atoms: CA_69  and  N_75 
REMARK   25  A    between atoms: CA_69  and  CB_71 
REMARK   26  A    between atoms: CA_69  and  C_70 
ROOT
ATOM      1  CA  GLU B   4       2.935  -2.082  -1.427  1.00  0.00     0.177 C 
ENDROOT
BRANCH   1   2
ATOM      2  CB  GLU B   4       1.619  -1.618  -2.053  1.00  0.00     0.045 C 
BRANCH   2   3
ATOM      3  CG  GLU B   4       0.498  -1.442  -1.042  1.00  0.00     0.116 C 
BRANCH   3   4
ATOM      4  CD  GLU B   4      -0.456  -2.621  -1.013  1.00  0.00     0.172 C 
ATOM      5  OE2 GLU B   4      -0.521  -3.306   0.029  1.00  0.00    -0.648 OA
ATOM      6  OE1 GLU B   4      -1.137  -2.858  -2.032  1.00  0.00    -0.648 OA
ENDBRANCH   3   4
ENDBRANCH   2   3
ENDBRANCH   1   2
BRANCH   1   7
ATOM      7  N   GLU B   4       2.719  -3.266  -0.598  1.00  0.00    -0.346 N 
ATOM      8  H   GLU B   4       1.805  -3.516  -0.349  1.00  0.23     0.163 HD
ATOM      9  C   TRP B   3       3.738  -4.008  -0.173  1.00  0.00     0.241 C 
ATOM     10  O   TRP B   3       4.909  -3.750  -0.448  1.00  0.00    -0.271 OA
BRANCH   9  11
ATOM     11  CA  TRP B   3       3.388  -5.218   0.688  1.00  0.00     0.181 C 
BRANCH  11  12
ATOM     12  CB  TRP B   3       2.953  -6.389  -0.205  1.00  0.00     0.075 C 
BRANCH  12  13
ATOM     13  CG  TRP B   3       1.526  -6.311  -0.663  1.00  0.00    -0.028 A 
ATOM     14  CD2 TRP B   3       1.046  -5.752  -1.892  1.00  0.00    -0.002 A 
ATOM     15  CE2 TRP B   3      -0.354  -5.903  -1.902  1.00  0.00     0.042 A 
ATOM     16  CE3 TRP B   3       1.663  -5.137  -2.986  1.00  0.00     0.014 A 
ATOM     17  NE1 TRP B   3      -0.709  -6.527  -0.735  1.00  0.00    -0.365 N 
ATOM     18  CZ2 TRP B   3      -1.145  -5.461  -2.960  1.00  0.00     0.030 A 
ATOM     19  HE1 TRP B   3      -1.622  -6.762  -0.467  1.00  0.23     0.165 HD
ATOM     20  CD1 TRP B   3       0.426  -6.770   0.003  1.00  0.00     0.096 A 
ATOM     21  CH2 TRP B   3      -0.513  -4.862  -4.015  1.00  0.00     0.002 A 
ATOM     22  CZ3 TRP B   3       0.877  -4.699  -4.035  1.00  0.00     0.001 A 
ENDBRANCH  12  13
ENDBRANCH  11  12
BRANCH  11  23
ATOM     23  N   TRP B   3       2.351  -4.888   1.662  1.00  0.00    -0.346 N 
ATOM     24  C   GLY B   2       2.027  -5.723   2.646  1.00  0.00     0.236 C 
ATOM     25  O   GLY B   2       2.568  -6.816   2.803  1.00  0.00    -0.272 OA
ATOM     26  H   TRP B   3       1.886  -4.027   1.592  1.00  0.23     0.163 HD
BRANCH  24  27
ATOM     27  CA  GLY B   2       0.937  -5.257   3.592  1.00  0.00     0.225 C 
BRANCH  27  28
ATOM     28  N   GLY B   2      -0.095  -6.259   3.790  1.00  0.00    -0.350 N 
ATOM     29  H   GLY B   2      -0.951  -6.176   3.321  1.00  0.23     0.163 HD
ATOM     30  C   HIS B   1       0.092  -7.293   4.607  1.00  0.00     0.254 C 
ATOM     31  O   HIS B   1       1.152  -7.467   5.226  1.00  0.00    -0.271 OA
BRANCH  30  32
ATOM     32  CA  HIS B   1      -1.042  -8.280   4.744  1.00  0.00     0.355 C 
BRANCH  32  33
ATOM     33  CB  HIS B   1      -1.460  -8.812   3.363  1.00  0.00     0.109 C 
BRANCH  33  34
ATOM     34  CG  HIS B   1      -2.517  -9.873   3.457  1.00  0.00     0.053 A 
ATOM     35  CD2 HIS B   1      -3.840  -9.648   3.099  1.00  0.00     0.116 A 
ATOM     36  NE2 HIS B   1      -4.538 -10.810   3.305  1.00  0.00    -0.359 N 
ATOM     37  HE2 HIS B   1      -5.539 -10.991   3.143  1.00  0.00     0.166 HD
ATOM     38  CE1 HIS B   1      -3.579 -11.653   3.776  1.00  0.00     0.207 A 
ATOM     39  ND1 HIS B   1      -2.325 -11.180   3.900  1.00  0.00    -0.247 NA
ENDBRANCH  33  34
ENDBRANCH  32  33
BRANCH  32  40
ATOM     40  N   HIS B   1      -2.226  -7.642   5.313  1.00  0.00     0.312 N 
ATOM     41  H   HIS B   1      -1.998  -6.610   5.561  1.00  0.00     0.359 HD
ENDBRANCH  32  40
ENDBRANCH  30  32
ENDBRANCH  27  28
ENDBRANCH  24  27
ENDBRANCH  11  23
ENDBRANCH   9  11
ENDBRANCH   1   7
BRANCH   1  42
ATOM     42  C   GLU B   4       3.543  -0.948  -0.607  1.00  0.00     0.241 C 
ATOM     43  O   GLU B   4       3.056  -0.622   0.476  1.00  0.00    -0.271 OA
ATOM     44  N   THR B   5       4.607  -0.349  -1.134  1.00  7.70    -0.344 N 
ATOM     45  H   THR B   5       4.944  -0.656  -2.002  1.00  0.23     0.163 HD
BRANCH  44  46
ATOM     46  CA  THR B   5       5.286   0.753  -0.459  1.00  7.88     0.205 C 
BRANCH  46  47
ATOM     47  CB  THR B   5       6.709   0.344  -0.075  1.00  4.05     0.146 C 
ATOM     48  CG2 THR B   5       7.356   1.289   0.914  1.00  3.72     0.042 C 
BRANCH  47  49
ATOM     49  OG1 THR B   5       6.720  -0.951   0.499  1.00  7.31    -0.393 OA
ATOM     50  HG1 THR B   5       6.777  -1.609  -0.197  1.00  0.23     0.210 HD
ENDBRANCH  47  49
ENDBRANCH  46  47
BRANCH  46  51
ATOM     51  C   THR B   5       5.323   1.989  -1.352  1.00  7.05     0.243 C 
ATOM     52  N   TRP B   6       4.731   3.078  -0.874  1.00  0.00    -0.346 N 
ATOM     53  H   TRP B   6       4.307   3.044   0.009  1.00  0.23     0.163 HD
ATOM     54  O   THR B   5       5.874   1.955  -2.452  1.00  6.06    -0.271 OA
BRANCH  52  55
ATOM     55  CA  TRP B   6       4.694   4.322  -1.632  1.00  0.00     0.181 C 
BRANCH  55  56
ATOM     56  CB  TRP B   6       3.466   5.144  -1.238  1.00  0.00     0.075 C 
BRANCH  56  57
ATOM     57  CG  TRP B   6       2.176   4.494  -1.635  1.00  0.00    -0.028 A 
ATOM     58  CD2 TRP B   6       1.490   4.644  -2.884  1.00  0.00    -0.002 A 
ATOM     59  CE2 TRP B   6       0.330   3.849  -2.820  1.00  0.00     0.042 A 
ATOM     60  CE3 TRP B   6       1.744   5.374  -4.048  1.00  0.00     0.014 A 
ATOM     61  CZ2 TRP B   6      -0.572   3.764  -3.877  1.00  0.00     0.030 A 
ATOM     62  NE1 TRP B   6       0.312   3.244  -1.590  1.00  0.00    -0.365 N 
ATOM     63  CH2 TRP B   6      -0.300   4.489  -5.005  1.00  0.00     0.002 A 
ATOM     64  CZ3 TRP B   6       0.846   5.288  -5.097  1.00  0.00     0.001 A 
ATOM     65  HE1 TRP B   6      -0.381   2.631  -1.266  1.00  0.23     0.165 HD
ATOM     66  CD1 TRP B   6       1.424   3.637  -0.885  1.00  0.00     0.096 A 
ENDBRANCH  56  57
ENDBRANCH  55  56
BRANCH  55  67
ATOM     67  C   TRP B   6       5.965   5.135  -1.408  1.00  0.00     0.241 C 
ATOM     68  N   VAL B   7       6.752   5.293  -2.468  1.00  6.11    -0.344 N 
ATOM     69  H   VAL B   7       6.488   4.893  -3.322  1.00  0.23     0.163 HD
ATOM     70  O   TRP B   6       6.227   5.604  -0.300  1.00  0.00    -0.271 OA
BRANCH  68  71
ATOM     71  CA  VAL B   7       7.998   6.045  -2.391  1.00  5.65     0.189 C 
BRANCH  71  72
ATOM     72  CB  VAL B   7       9.053   5.476  -3.360  1.00  1.15     0.010 C 
ATOM     73  CG1 VAL B   7       9.474   4.078  -2.930  1.00  4.96     0.012 C 
ATOM     74  CG2 VAL B   7       8.523   5.465  -4.786  1.00  9.83     0.012 C 
ENDBRANCH  71  72
BRANCH  71  75
ATOM     75  C   VAL B   7       7.772   7.520  -2.710  1.00  4.44     0.197 C 
ATOM     76  OXT VAL B   7       6.958   7.813  -3.609  1.00  0.00    -0.646 OA
ATOM     77  O   VAL B   7       8.412   8.369  -2.055  1.00  0.00    -0.646 OA
ENDBRANCH  71  75
ENDBRANCH  68  71
ENDBRANCH  55  67
ENDBRANCH  52  55
ENDBRANCH  46  51
ENDBRANCH  44  46
ENDBRANCH   1  42
TORSDOF 26
