REMARK  26 active torsions:
REMARK  status: ('A' for Active; 'I' for Inactive)
REMARK    1  A    between atoms: N_1  and  CA_2 
REMARK    2  A    between atoms: CA_2  and  CB_5 
REMARK    3  A    between atoms: CA_2  and  C_3 
REMARK       I    between atoms: C_3  and  N_13 
REMARK    4  A    between atoms: CB_5  and  OG1_7 
REMARK    5  A    between atoms: CA_10  and  N_13 
REMARK    6  A    between atoms: CA_10  and  C_11 
REMARK       I    between atoms: C_11  and  N_28 
REMARK    7  A    between atoms: CA_15  and  C_16 
REMARK    8  A    between atoms: CA_15  and  N_28 
REMARK    9  A    between atoms: CA_15  and  CB_17 
REMARK       I    between atoms: C_16  and  N_37 
REMARK   10  A    between atoms: CB_17  and  CG_18 
REMARK   11  A    between atoms: CA_31  and  N_37 
REMARK   12  A    between atoms: CA_31  and  CB_33 
REMARK   13  A    between atoms: CA_31  and  C_32 
REMARK       I    between atoms: C_32  and  N_47 
REMARK   14  A    between atoms: CB_33  and  CG_34 
REMARK   15  A    between atoms: CG_34  and  CD_35 
REMARK   16  A    between atoms: CA_41  and  N_47 
REMARK   17  A    between atoms: CA_41  and  CB_43 
REMARK   18  A    between atoms: CA_41  and  C_42 
REMARK       I    between atoms: C_42  and  N_63 
REMARK   19  A    between atoms: CB_43  and  OG1_49 
REMARK   20  A    between atoms: CA_50  and  CB_52 
REMARK   21  A    between atoms: CA_50  and  N_63 
REMARK   22  A    between atoms: CA_50  and  C_51 
REMARK       I    between atoms: C_51  and  N_72 
REMARK   23  A    between atoms: CB_52  and  CG_53 
REMARK   24  A    between atoms: CA_66  and  CB_68 
REMARK   25  A    between atoms: CA_66  and  C_67 
REMARK   26  A    between atoms: CA_66  and  N_72 
ROOT
ATOM      1  CA  GLU B   4       2.935  -2.082  -1.427  1.00  0.00     0.177 C 
ENDROOT
BRANCH   1   2
ATOM      2  N   GLU B   4       2.719  -3.266  -0.598  1.00  0.00    -0.346 N 
ATOM      3  H   GLU B   4       1.805  -3.516  -0.349  1.00  0.23     0.163 HD
ATOM      4  C   TRP B   3       3.738  -4.008  -0.173  1.00  0.00     0.241 C 
ATOM      5  O   TRP B   3       4.909  -3.750  -0.448  1.00  0.00    -0.271 OA
BRANCH   4   6
ATOM      6  CA  TRP B   3       3.388  -5.218   0.688  1.00  0.00     0.181 C 
BRANCH   6   7
ATOM      7  N   TRP B   3       2.351  -4.888   1.662  1.00  0.00    -0.346 N 
ATOM      8  H   TRP B   3       1.886  -4.027   1.592  1.00  0.23     0.163 HD
ATOM      9  C   GLY B   2       2.027  -5.723   2.646  1.00  0.00     0.236 C 
ATOM     10  O   GLY B   2       2.568  -6.816   2.803  1.00  0.00    -0.272 OA
BRANCH   9  11
ATOM     11  CA  GLY B   2       0.937  -5.257   3.592  1.00  0.00     0.225 C 
BRANCH  11  12
ATOM     12  N   GLY B   2      -0.095  -6.259   3.790  1.00  0.00    -0.350 N 
ATOM     13  H   GLY B   2      -0.951  -6.176   3.321  1.00  0.23     0.163 HD
ATOM     14  C   THR B   1       0.090  -7.295   4.616  1.00  0.00     0.256 C 
ATOM     15  O   THR B   1       1.152  -7.467   5.226  1.00  0.00    -0.271 OA
BRANCH  14  16
ATOM     16  CA  THR B   1      -1.064  -8.262   4.732  1.00  0.00     0.378 C 
BRANCH  16  17
ATOM     17  CB  THR B   1      -1.442  -8.843   3.328  1.00  0.00     0.159 C 
ATOM     18  CG2 THR B   1      -2.591  -9.875   3.301  1.00  0.00     0.042 C 
BRANCH  17  19
ATOM     19  OG1 THR B   1      -1.875  -7.805   2.458  1.00  0.00    -0.393 OA
ATOM     20  HG1 THR B   1      -2.021  -8.218   1.602  1.00  0.00     0.210 HD
ENDBRANCH  17  19
ENDBRANCH  16  17
BRANCH  16  21
ATOM     21  N   THR B   1      -2.221  -7.625   5.352  1.00  0.00     0.315 N 
ATOM     22  H   THR B   1      -1.997  -6.610   5.560  1.00  0.00     0.359 HD
ENDBRANCH  16  21
ENDBRANCH  14  16
ENDBRANCH  11  12
ENDBRANCH   9  11
ENDBRANCH   6   7
BRANCH   6  23
ATOM     23  CB  TRP B   3       2.953  -6.389  -0.205  1.00  0.00     0.075 C 
BRANCH  23  24
ATOM     24  CG  TRP B   3       1.526  -6.311  -0.663  1.00  0.00    -0.028 A 
ATOM     25  CD1 TRP B   3       0.426  -6.770   0.003  1.00  0.00     0.096 A 
ATOM     26  NE1 TRP B   3      -0.709  -6.527  -0.735  1.00  0.00    -0.365 N 
ATOM     27  CE2 TRP B   3      -0.354  -5.903  -1.902  1.00  0.00     0.042 A 
ATOM     28  HE1 TRP B   3      -1.622  -6.762  -0.467  1.00  0.23     0.165 HD
ATOM     29  CZ2 TRP B   3      -1.145  -5.461  -2.960  1.00  0.00     0.030 A 
ATOM     30  CD2 TRP B   3       1.046  -5.752  -1.892  1.00  0.00    -0.002 A 
ATOM     31  CH2 TRP B   3      -0.513  -4.862  -4.015  1.00  0.00     0.002 A 
ATOM     32  CZ3 TRP B   3       0.877  -4.699  -4.035  1.00  0.00     0.001 A 
ATOM     33  CE3 TRP B   3       1.663  -5.137  -2.986  1.00  0.00     0.014 A 
ENDBRANCH  23  24
ENDBRANCH   6  23
ENDBRANCH   4   6
ENDBRANCH   1   2
BRANCH   1  34
ATOM     34  CB  GLU B   4       1.619  -1.618  -2.053  1.00  0.00     0.045 C 
BRANCH  34  35
ATOM     35  CG  GLU B   4       0.498  -1.442  -1.042  1.00  0.00     0.116 C 
BRANCH  35  36
ATOM     36  CD  GLU B   4      -0.456  -2.621  -1.013  1.00  0.00     0.172 C 
ATOM     37  OE1 GLU B   4      -1.137  -2.858  -2.032  1.00  0.00    -0.648 OA
ATOM     38  OE2 GLU B   4      -0.521  -3.306   0.029  1.00  0.00    -0.648 OA
ENDBRANCH  35  36
ENDBRANCH  34  35
ENDBRANCH   1  34
BRANCH   1  39
ATOM     39  C   GLU B   4       3.543  -0.948  -0.607  1.00  0.00     0.241 C 
ATOM     40  N   THR B   5       4.607  -0.349  -1.134  1.00  7.70    -0.344 N 
ATOM     41  H   THR B   5       4.944  -0.656  -2.002  1.00  0.23     0.163 HD
ATOM     42  O   GLU B   4       3.056  -0.622   0.476  1.00  0.00    -0.271 OA
BRANCH  40  43
ATOM     43  CA  THR B   5       5.286   0.753  -0.459  1.00  7.88     0.205 C 
BRANCH  43  44
ATOM     44  CB  THR B   5       6.709   0.344  -0.075  1.00  4.05     0.146 C 
ATOM     45  CG2 THR B   5       7.356   1.289   0.914  1.00  3.72     0.042 C 
BRANCH  44  46
ATOM     46  OG1 THR B   5       6.720  -0.951   0.499  1.00  7.31    -0.393 OA
ATOM     47  HG1 THR B   5       6.777  -1.609  -0.197  1.00  0.23     0.210 HD
ENDBRANCH  44  46
ENDBRANCH  43  44
BRANCH  43  48
ATOM     48  C   THR B   5       5.323   1.989  -1.352  1.00  7.05     0.243 C 
ATOM     49  N   TRP B   6       4.731   3.078  -0.874  1.00  0.00    -0.346 N 
ATOM     50  H   TRP B   6       4.307   3.044   0.009  1.00  0.23     0.163 HD
ATOM     51  O   THR B   5       5.874   1.955  -2.452  1.00  6.06    -0.271 OA
BRANCH  49  52
ATOM     52  CA  TRP B   6       4.694   4.322  -1.632  1.00  0.00     0.181 C 
BRANCH  52  53
ATOM     53  CB  TRP B   6       3.466   5.144  -1.238  1.00  0.00     0.075 C 
BRANCH  53  54
ATOM     54  CG  TRP B   6       2.176   4.494  -1.635  1.00  0.00    -0.028 A 
ATOM     55  CD2 TRP B   6       1.490   4.644  -2.884  1.00  0.00    -0.002 A 
ATOM     56  CE2 TRP B   6       0.330   3.849  -2.820  1.00  0.00     0.042 A 
ATOM     57  CE3 TRP B   6       1.744   5.374  -4.048  1.00  0.00     0.014 A 
ATOM     58  CZ2 TRP B   6      -0.572   3.764  -3.877  1.00  0.00     0.030 A 
ATOM     59  NE1 TRP B   6       0.312   3.244  -1.590  1.00  0.00    -0.365 N 
ATOM     60  CH2 TRP B   6      -0.300   4.489  -5.005  1.00  0.00     0.002 A 
ATOM     61  CZ3 TRP B   6       0.846   5.288  -5.097  1.00  0.00     0.001 A 
ATOM     62  HE1 TRP B   6      -0.381   2.631  -1.266  1.00  0.23     0.165 HD
ATOM     63  CD1 TRP B   6       1.424   3.637  -0.885  1.00  0.00     0.096 A 
ENDBRANCH  53  54
ENDBRANCH  52  53
BRANCH  52  64
ATOM     64  C   TRP B   6       5.965   5.135  -1.408  1.00  0.00     0.241 C 
ATOM     65  O   TRP B   6       6.227   5.604  -0.300  1.00  0.00    -0.271 OA
ATOM     66  N   VAL B   7       6.752   5.293  -2.468  1.00  6.11    -0.344 N 
ATOM     67  H   VAL B   7       6.488   4.893  -3.322  1.00  0.23     0.163 HD
BRANCH  66  68
ATOM     68  CA  VAL B   7       7.998   6.045  -2.391  1.00  5.65     0.189 C 
BRANCH  68  69
ATOM     69  CB  VAL B   7       9.053   5.476  -3.360  1.00  1.15     0.010 C 
ATOM     70  CG1 VAL B   7       9.474   4.078  -2.930  1.00  4.96     0.012 C 
ATOM     71  CG2 VAL B   7       8.523   5.465  -4.786  1.00  9.83     0.012 C 
ENDBRANCH  68  69
BRANCH  68  72
ATOM     72  C   VAL B   7       7.772   7.520  -2.710  1.00  4.44     0.197 C 
ATOM     73  OXT VAL B   7       6.958   7.813  -3.609  1.00  0.00    -0.646 OA
ATOM     74  O   VAL B   7       8.412   8.369  -2.055  1.00  0.00    -0.646 OA
ENDBRANCH  68  72
ENDBRANCH  66  68
ENDBRANCH  52  64
ENDBRANCH  49  52
ENDBRANCH  43  48
ENDBRANCH  40  43
ENDBRANCH   1  39
TORSDOF 26
