MODEL 1
REMARK VINA RESULT:      -7.8      0.000      0.000
REMARK  26 active torsions:
REMARK  status: ('A' for Active; 'I' for Inactive)
REMARK    1  A    between atoms: N_1  and  CA_2 
REMARK    2  A    between atoms: CA_2  and  CB_5 
REMARK    3  A    between atoms: CA_2  and  C_3 
REMARK       I    between atoms: C_3  and  N_20 
REMARK    4  A    between atoms: CB_5  and  CG_6 
REMARK    5  A    between atoms: CA_17  and  N_20 
REMARK    6  A    between atoms: CA_17  and  C_18 
REMARK       I    between atoms: C_18  and  N_35 
REMARK    7  A    between atoms: CA_22  and  CB_24 
REMARK    8  A    between atoms: CA_22  and  N_35 
REMARK    9  A    between atoms: CA_22  and  C_23 
REMARK       I    between atoms: C_23  and  N_44 
REMARK   10  A    between atoms: CB_24  and  CG_25 
REMARK   11  A    between atoms: CA_38  and  N_44 
REMARK   12  A    between atoms: CA_38  and  CB_40 
REMARK   13  A    between atoms: CA_38  and  C_39 
REMARK       I    between atoms: C_39  and  N_54 
REMARK   14  A    between atoms: CB_40  and  CG_41 
REMARK   15  A    between atoms: CG_41  and  CD_42 
REMARK   16  A    between atoms: CA_48  and  N_54 
REMARK   17  A    between atoms: CA_48  and  CB_50 
REMARK   18  A    between atoms: CA_48  and  C_49 
REMARK       I    between atoms: C_49  and  N_70 
REMARK   19  A    between atoms: CB_50  and  OG1_56 
REMARK   20  A    between atoms: CA_57  and  CB_59 
REMARK   21  A    between atoms: CA_57  and  N_70 
REMARK   22  A    between atoms: CA_57  and  C_58 
REMARK       I    between atoms: C_58  and  N_79 
REMARK   23  A    between atoms: CB_59  and  CG_60 
REMARK   24  A    between atoms: CA_73  and  N_79 
REMARK   25  A    between atoms: CA_73  and  CB_75 
REMARK   26  A    between atoms: CA_73  and  C_74 
ROOT
ATOM      1  CA  GLU B   4       5.950  91.223  61.990  1.00  0.00     0.177 C 
ENDROOT
BRANCH   1   2
ATOM      2  N   GLU B   4       4.654  90.681  62.390  1.00  0.00    -0.346 N 
ATOM      3  C   TRP B   3       4.502  90.029  63.540  1.00  0.00     0.241 C 
ATOM      4  O   TRP B   3       5.430  89.841  64.325  1.00  0.00    -0.271 OA
ATOM      5  H   GLU B   4       3.881  90.804  61.801  1.00  0.23     0.163 HD
BRANCH   3   6
ATOM      6  CA  TRP B   3       3.101  89.512  63.850  1.00  0.00     0.181 C 
BRANCH   6   7
ATOM      7  CB  TRP B   3       3.184  88.316  64.810  1.00  0.00     0.075 C 
BRANCH   7   8
ATOM      8  CG  TRP B   3       2.982  88.675  66.253  1.00  0.00    -0.028 A 
ATOM      9  CD1 TRP B   3       3.335  87.928  67.340  1.00  0.00     0.096 A 
ATOM     10  NE1 TRP B   3       2.982  88.581  68.497  1.00  0.00    -0.365 N 
ATOM     11  CE2 TRP B   3       2.387  89.772  68.171  1.00  0.00     0.042 A 
ATOM     12  HE1 TRP B   3       3.133  88.248  69.407  1.00  0.23     0.165 HD
ATOM     13  CZ2 TRP B   3       1.867  90.770  68.992  1.00  0.00     0.030 A 
ATOM     14  CD2 TRP B   3       2.368  89.864  66.766  1.00  0.00    -0.002 A 
ATOM     15  CH2 TRP B   3       1.323  91.869  68.384  1.00  0.00     0.002 A 
ATOM     16  CZ3 TRP B   3       1.288  91.988  66.990  1.00  0.00     0.001 A 
ATOM     17  CE3 TRP B   3       1.804  90.999  66.175  1.00  0.00     0.014 A 
ENDBRANCH   7   8
ENDBRANCH   6   7
BRANCH   6  18
ATOM     18  N   TRP B   3       2.389  89.153  62.626  1.00  0.00    -0.346 N 
ATOM     19  C   GLY B   2       1.073  88.955  62.617  1.00  0.00     0.236 C 
ATOM     20  O   GLY B   2       0.373  89.056  63.623  1.00  0.00    -0.272 OA
ATOM     21  H   TRP B   3       2.893  89.063  61.789  1.00  0.23     0.163 HD
BRANCH  19  22
ATOM     22  CA  GLY B   2       0.457  88.593  61.279  1.00  0.00     0.225 C 
BRANCH  22  23
ATOM     23  N   GLY B   2       1.397  87.928  60.394  1.00  0.00    -0.350 N 
ATOM     24  H   GLY B   2       2.041  88.459  59.880  1.00  0.23     0.163 HD
ATOM     25  C   TRP B   1       1.406  86.603  60.254  1.00  0.00     0.254 C 
ATOM     26  O   TRP B   1       0.622  85.870  60.882  1.00  0.00    -0.271 OA
BRANCH  25  27
ATOM     27  CA  TRP B   1       2.423  86.022  59.299  1.00  0.00     0.354 C 
BRANCH  27  28
ATOM     28  N   TRP B   1       2.888  87.030  58.353  1.00  0.00     0.312 N 
ATOM     29  H   TRP B   1       3.402  87.805  58.879  1.00  0.00     0.359 HD
ENDBRANCH  27  28
BRANCH  27  30
ATOM     30  CB  TRP B   1       3.637  85.472  60.096  1.00  0.00     0.089 C 
BRANCH  30  31
ATOM     31  CG  TRP B   1       5.001  85.982  59.620  1.00  0.00    -0.028 A 
ATOM     32  CD1 TRP B   1       5.579  85.729  58.360  1.00  0.00     0.096 A 
ATOM     33  NE1 TRP B   1       6.876  86.270  58.266  1.00  0.00    -0.365 N 
ATOM     34  HE1 TRP B   1       7.538  86.203  57.484  1.00  0.00     0.165 HD
ATOM     35  CE2 TRP B   1       7.081  86.859  59.505  1.00  0.00     0.042 A 
ATOM     36  CD2 TRP B   1       5.946  86.689  60.336  1.00  0.00    -0.002 A 
ATOM     37  CZ2 TRP B   1       8.217  87.541  59.992  1.00  0.00     0.030 A 
ATOM     38  CE3 TRP B   1       5.942  87.188  61.663  1.00  0.00     0.014 A 
ATOM     39  CZ3 TRP B   1       7.073  87.864  62.120  1.00  0.00     0.001 A 
ATOM     40  CH2 TRP B   1       8.194  88.041  61.297  1.00  0.00     0.002 A 
ENDBRANCH  30  31
ENDBRANCH  27  30
ENDBRANCH  25  27
ENDBRANCH  22  23
ENDBRANCH  19  22
ENDBRANCH   6  18
ENDBRANCH   3   6
ENDBRANCH   1   2
BRANCH   1  41
ATOM     41  CB  GLU B   4       5.947  91.578  60.502  1.00  0.00     0.045 C 
BRANCH  41  42
ATOM     42  CG  GLU B   4       5.965  90.362  59.591  1.00  0.00     0.116 C 
BRANCH  42  43
ATOM     43  CD  GLU B   4       4.588  90.002  59.066  1.00  0.00     0.172 C 
ATOM     44  OE1 GLU B   4       3.782  89.452  59.844  1.00  0.00    -0.648 OA
ATOM     45  OE2 GLU B   4       4.318  90.272  57.877  1.00  0.00    -0.648 OA
ENDBRANCH  42  43
ENDBRANCH  41  42
ENDBRANCH   1  41
BRANCH   1  46
ATOM     46  C   GLU B   4       6.301  92.459  62.813  1.00  0.00     0.241 C 
ATOM     47  O   GLU B   4       5.960  93.582  62.440  1.00  0.00    -0.271 OA
ATOM     48  N   THR B   5       6.987  92.243  63.931  1.00  7.70    -0.344 N 
ATOM     49  H   THR B   5       7.229  91.324  64.170  1.00  0.23     0.163 HD
BRANCH  48  50
ATOM     50  CA  THR B   5       7.392  93.335  64.812  1.00  7.88     0.205 C 
BRANCH  50  51
ATOM     51  CB  THR B   5       6.529  93.346  66.075  1.00  4.05     0.146 C 
ATOM     52  CG2 THR B   5       5.059  93.117  65.796  1.00  3.72     0.042 C 
BRANCH  51  53
ATOM     53  OG1 THR B   5       6.954  92.344  66.981  1.00  7.31    -0.393 OA
ATOM     54  HG1 THR B   5       7.845  92.539  67.278  1.00  0.23     0.210 HD
ENDBRANCH  51  53
ENDBRANCH  50  51
BRANCH  50  55
ATOM     55  C   THR B   5       8.864  93.204  65.189  1.00  7.05     0.243 C 
ATOM     56  O   THR B   5       9.583  94.199  65.277  1.00  6.06    -0.271 OA
ATOM     57  N   TRP B   6       9.306  91.971  65.415  1.00  0.00    -0.346 N 
ATOM     58  H   TRP B   6       8.685  91.217  65.331  1.00  0.23     0.163 HD
BRANCH  57  59
ATOM     59  CA  TRP B   6      10.691  91.713  65.787  1.00  0.00     0.181 C 
BRANCH  59  60
ATOM     60  CB  TRP B   6      10.828  90.303  66.364  1.00  0.00     0.075 C 
BRANCH  60  61
ATOM     61  CG  TRP B   6       9.507  89.662  66.662  1.00  0.00    -0.028 A 
ATOM     62  CD2 TRP B   6       8.770  89.747  67.888  1.00  0.00    -0.002 A 
ATOM     63  CE2 TRP B   6       7.589  89.001  67.716  1.00  0.00     0.042 A 
ATOM     64  CE3 TRP B   6       8.997  90.379  69.113  1.00  0.00     0.014 A 
ATOM     65  CZ2 TRP B   6       6.638  88.873  68.724  1.00  0.00     0.030 A 
ATOM     66  NE1 TRP B   6       7.607  88.487  66.445  1.00  0.00    -0.365 N 
ATOM     67  CH2 TRP B   6       6.884  89.502  69.914  1.00  0.00     0.002 A 
ATOM     68  CZ3 TRP B   6       8.050  90.250  70.114  1.00  0.00     0.001 A 
ATOM     69  CD1 TRP B   6       8.762  88.889  65.819  1.00  0.00     0.096 A 
ATOM     70  HE1 TRP B   6       6.909  87.925  66.048  1.00  0.23     0.165 HD
ENDBRANCH  60  61
ENDBRANCH  59  60
BRANCH  59  71
ATOM     71  C   TRP B   6      11.618  91.882  64.587  1.00  0.00     0.241 C 
ATOM     72  N   VAL B   7      12.437  92.929  64.626  1.00  6.11    -0.344 N 
ATOM     73  H   VAL B   7      12.411  93.527  65.400  1.00  0.23     0.163 HD
ATOM     74  O   TRP B   6      11.588  91.085  63.649  1.00  0.00    -0.271 OA
BRANCH  72  75
ATOM     75  CA  VAL B   7      13.372  93.209  63.543  1.00  5.65     0.189 C 
BRANCH  75  76
ATOM     76  CB  VAL B   7      13.736  94.706  63.495  1.00  1.15     0.010 C 
ATOM     77  CG1 VAL B   7      15.100  94.903  62.850  1.00  4.96     0.012 C 
ATOM     78  CG2 VAL B   7      12.668  95.495  62.751  1.00  9.83     0.012 C 
ENDBRANCH  75  76
BRANCH  75  79
ATOM     79  C   VAL B   7      14.651  92.389  63.694  1.00  4.44     0.197 C 
ATOM     80  O   VAL B   7      15.087  92.185  64.846  1.00  0.00    -0.646 OA
ATOM     81  OXT VAL B   7      15.204  91.961  62.660  1.00  0.00    -0.646 OA
ENDBRANCH  75  79
ENDBRANCH  72  75
ENDBRANCH  59  71
ENDBRANCH  57  59
ENDBRANCH  50  55
ENDBRANCH  48  50
ENDBRANCH   1  46
TORSDOF 26
ENDMDL
MODEL 2
REMARK VINA RESULT:      -7.4      1.649      2.192
REMARK  26 active torsions:
REMARK  status: ('A' for Active; 'I' for Inactive)
REMARK    1  A    between atoms: N_1  and  CA_2 
REMARK    2  A    between atoms: CA_2  and  CB_5 
REMARK    3  A    between atoms: CA_2  and  C_3 
REMARK       I    between atoms: C_3  and  N_20 
REMARK    4  A    between atoms: CB_5  and  CG_6 
REMARK    5  A    between atoms: CA_17  and  N_20 
REMARK    6  A    between atoms: CA_17  and  C_18 
REMARK       I    between atoms: C_18  and  N_35 
REMARK    7  A    between atoms: CA_22  and  CB_24 
REMARK    8  A    between atoms: CA_22  and  N_35 
REMARK    9  A    between atoms: CA_22  and  C_23 
REMARK       I    between atoms: C_23  and  N_44 
REMARK   10  A    between atoms: CB_24  and  CG_25 
REMARK   11  A    between atoms: CA_38  and  N_44 
REMARK   12  A    between atoms: CA_38  and  CB_40 
REMARK   13  A    between atoms: CA_38  and  C_39 
REMARK       I    between atoms: C_39  and  N_54 
REMARK   14  A    between atoms: CB_40  and  CG_41 
REMARK   15  A    between atoms: CG_41  and  CD_42 
REMARK   16  A    between atoms: CA_48  and  N_54 
REMARK   17  A    between atoms: CA_48  and  CB_50 
REMARK   18  A    between atoms: CA_48  and  C_49 
REMARK       I    between atoms: C_49  and  N_70 
REMARK   19  A    between atoms: CB_50  and  OG1_56 
REMARK   20  A    between atoms: CA_57  and  CB_59 
REMARK   21  A    between atoms: CA_57  and  N_70 
REMARK   22  A    between atoms: CA_57  and  C_58 
REMARK       I    between atoms: C_58  and  N_79 
REMARK   23  A    between atoms: CB_59  and  CG_60 
REMARK   24  A    between atoms: CA_73  and  N_79 
REMARK   25  A    between atoms: CA_73  and  CB_75 
REMARK   26  A    between atoms: CA_73  and  C_74 
ROOT
ATOM      1  CA  GLU B   4       5.833  90.996  61.307  1.00  0.00     0.177 C 
ENDROOT
BRANCH   1   2
ATOM      2  N   GLU B   4       4.544  90.515  61.798  1.00  0.00    -0.346 N 
ATOM      3  C   TRP B   3       4.465  89.492  62.645  1.00  0.00     0.241 C 
ATOM      4  O   TRP B   3       5.456  88.894  63.061  1.00  0.00    -0.271 OA
ATOM      5  H   GLU B   4       3.722  90.956  61.499  1.00  0.23     0.163 HD
BRANCH   3   6
ATOM      6  CA  TRP B   3       3.064  89.081  63.090  1.00  0.00     0.181 C 
BRANCH   6   7
ATOM      7  CB  TRP B   3       3.155  88.012  64.188  1.00  0.00     0.075 C 
BRANCH   7   8
ATOM      8  CG  TRP B   3       2.924  88.539  65.574  1.00  0.00    -0.028 A 
ATOM      9  CD1 TRP B   3       1.721  88.698  66.200  1.00  0.00     0.096 A 
ATOM     10  NE1 TRP B   3       1.909  89.215  67.461  1.00  0.00    -0.365 N 
ATOM     11  CE2 TRP B   3       3.250  89.402  67.669  1.00  0.00     0.042 A 
ATOM     12  HE1 TRP B   3       1.197  89.416  68.105  1.00  0.23     0.165 HD
ATOM     13  CZ2 TRP B   3       3.926  89.898  68.781  1.00  0.00     0.030 A 
ATOM     14  CD2 TRP B   3       3.920  88.989  66.501  1.00  0.00    -0.002 A 
ATOM     15  CH2 TRP B   3       5.290  89.975  68.710  1.00  0.00     0.002 A 
ATOM     16  CZ3 TRP B   3       5.984  89.574  67.563  1.00  0.00     0.001 A 
ATOM     17  CE3 TRP B   3       5.315  89.082  66.459  1.00  0.00     0.014 A 
ENDBRANCH   7   8
ENDBRANCH   6   7
BRANCH   6  18
ATOM     18  N   TRP B   3       2.272  88.605  61.959  1.00  0.00    -0.346 N 
ATOM     19  C   GLY B   2       0.942  88.634  61.977  1.00  0.00     0.236 C 
ATOM     20  O   GLY B   2       0.294  89.056  62.933  1.00  0.00    -0.272 OA
ATOM     21  H   TRP B   3       2.733  88.261  61.164  1.00  0.23     0.163 HD
BRANCH  19  22
ATOM     22  CA  GLY B   2       0.241  88.115  60.737  1.00  0.00     0.225 C 
BRANCH  22  23
ATOM     23  N   GLY B   2       1.170  87.621  59.737  1.00  0.00    -0.350 N 
ATOM     24  H   GLY B   2       1.577  88.245  59.100  1.00  0.23     0.163 HD
ATOM     25  C   TRP B   1       1.484  86.329  59.654  1.00  0.00     0.254 C 
ATOM     26  O   TRP B   1       1.010  85.485  60.434  1.00  0.00    -0.271 OA
BRANCH  25  27
ATOM     27  CA  TRP B   1       2.456  85.928  58.568  1.00  0.00     0.354 C 
BRANCH  27  28
ATOM     28  N   TRP B   1       1.792  85.861  57.271  1.00  0.00     0.312 N 
ATOM     29  H   TRP B   1       2.477  85.492  56.538  1.00  0.00     0.359 HD
ENDBRANCH  27  28
BRANCH  27  30
ATOM     30  CB  TRP B   1       3.616  86.959  58.495  1.00  0.00     0.089 C 
BRANCH  30  31
ATOM     31  CG  TRP B   1       4.704  86.776  59.558  1.00  0.00    -0.028 A 
ATOM     32  CD1 TRP B   1       4.560  86.071  60.770  1.00  0.00     0.096 A 
ATOM     33  NE1 TRP B   1       5.720  86.160  61.563  1.00  0.00    -0.365 N 
ATOM     34  HE1 TRP B   1       5.878  85.779  62.503  1.00  0.00     0.165 HD
ATOM     35  CE2 TRP B   1       6.580  86.944  60.808  1.00  0.00     0.042 A 
ATOM     36  CD2 TRP B   1       5.971  87.324  59.586  1.00  0.00    -0.002 A 
ATOM     37  CZ2 TRP B   1       7.887  87.382  61.111  1.00  0.00     0.030 A 
ATOM     38  CE3 TRP B   1       6.658  88.153  58.665  1.00  0.00     0.014 A 
ATOM     39  CZ3 TRP B   1       7.951  88.568  58.984  1.00  0.00     0.001 A 
ATOM     40  CH2 TRP B   1       8.559  88.186  60.187  1.00  0.00     0.002 A 
ENDBRANCH  30  31
ENDBRANCH  27  30
ENDBRANCH  25  27
ENDBRANCH  22  23
ENDBRANCH  19  22
ENDBRANCH   6  18
ENDBRANCH   3   6
ENDBRANCH   1   2
BRANCH   1  41
ATOM     41  CB  GLU B   4       5.717  91.452  59.852  1.00  0.00     0.045 C 
BRANCH  41  42
ATOM     42  CG  GLU B   4       4.370  92.074  59.520  1.00  0.00     0.116 C 
BRANCH  42  43
ATOM     43  CD  GLU B   4       3.340  91.047  59.089  1.00  0.00     0.172 C 
ATOM     44  OE1 GLU B   4       2.268  91.453  58.595  1.00  0.00    -0.648 OA
ATOM     45  OE2 GLU B   4       3.607  89.837  59.247  1.00  0.00    -0.648 OA
ENDBRANCH  42  43
ENDBRANCH  41  42
ENDBRANCH   1  41
BRANCH   1  46
ATOM     46  C   GLU B   4       6.347  92.147  62.167  1.00  0.00     0.241 C 
ATOM     47  O   GLU B   4       6.787  93.174  61.649  1.00  0.00    -0.271 OA
ATOM     48  N   THR B   5       6.292  91.965  63.484  1.00  7.70    -0.344 N 
ATOM     49  H   THR B   5       5.932  91.122  63.832  1.00  0.23     0.163 HD
BRANCH  48  50
ATOM     50  CA  THR B   5       6.753  92.981  64.424  1.00  7.88     0.205 C 
BRANCH  50  51
ATOM     51  CB  THR B   5       5.679  93.257  65.477  1.00  4.05     0.146 C 
ATOM     52  CG2 THR B   5       4.412  92.458  65.261  1.00  3.72     0.042 C 
BRANCH  51  53
ATOM     53  OG1 THR B   5       6.160  92.955  66.775  1.00  7.31    -0.393 OA
ATOM     54  HG1 THR B   5       5.881  92.071  67.022  1.00  0.23     0.210 HD
ENDBRANCH  51  53
ENDBRANCH  50  51
BRANCH  50  55
ATOM     55  C   THR B   5       8.045  92.539  65.103  1.00  7.05     0.243 C 
ATOM     56  O   THR B   5       8.763  93.353  65.682  1.00  6.06    -0.271 OA
ATOM     57  N   TRP B   6       8.335  91.244  65.030  1.00  0.00    -0.346 N 
ATOM     58  H   TRP B   6       7.723  90.643  64.555  1.00  0.23     0.163 HD
BRANCH  57  59
ATOM     59  CA  TRP B   6       9.538  90.695  65.641  1.00  0.00     0.181 C 
BRANCH  59  60
ATOM     60  CB  TRP B   6       9.389  89.186  65.837  1.00  0.00     0.075 C 
BRANCH  60  61
ATOM     61  CG  TRP B   6       9.372  88.782  67.279  1.00  0.00    -0.028 A 
ATOM     62  CD2 TRP B   6       9.081  87.480  67.801  1.00  0.00    -0.002 A 
ATOM     63  CE2 TRP B   6       9.188  87.560  69.203  1.00  0.00     0.042 A 
ATOM     64  CE3 TRP B   6       8.740  86.256  67.219  1.00  0.00     0.014 A 
ATOM     65  CZ2 TRP B   6       8.967  86.461  70.029  1.00  0.00     0.030 A 
ATOM     66  NE1 TRP B   6       9.528  88.850  69.518  1.00  0.00    -0.365 N 
ATOM     67  CH2 TRP B   6       8.634  85.275  69.434  1.00  0.00     0.002 A 
ATOM     68  CZ3 TRP B   6       8.520  85.166  68.042  1.00  0.00     0.001 A 
ATOM     69  CD1 TRP B   6       9.636  89.577  68.357  1.00  0.00     0.096 A 
ATOM     70  HE1 TRP B   6       9.671  89.197  70.423  1.00  0.23     0.165 HD
ENDBRANCH  60  61
ENDBRANCH  59  60
BRANCH  59  71
ATOM     71  C   TRP B   6      10.768  90.997  64.791  1.00  0.00     0.241 C 
ATOM     72  N   VAL B   7      11.519  92.018  65.191  1.00  6.11    -0.344 N 
ATOM     73  H   VAL B   7      11.257  92.518  65.992  1.00  0.23     0.163 HD
ATOM     74  O   TRP B   6      11.027  90.321  63.794  1.00  0.00    -0.271 OA
BRANCH  72  75
ATOM     75  CA  VAL B   7      12.720  92.415  64.467  1.00  5.65     0.189 C 
BRANCH  75  76
ATOM     76  CB  VAL B   7      12.822  93.949  64.357  1.00  1.15     0.010 C 
ATOM     77  CG1 VAL B   7      12.482  94.407  62.946  1.00  4.96     0.012 C 
ATOM     78  CG2 VAL B   7      11.917  94.623  65.376  1.00  9.83     0.012 C 
ENDBRANCH  75  76
BRANCH  75  79
ATOM     79  C   VAL B   7      13.976  91.879  65.147  1.00  4.44     0.197 C 
ATOM     80  O   VAL B   7      13.852  91.325  66.259  1.00  0.00    -0.646 OA
ATOM     81  OXT VAL B   7      15.070  92.018  64.563  1.00  0.00    -0.646 OA
ENDBRANCH  75  79
ENDBRANCH  72  75
ENDBRANCH  59  71
ENDBRANCH  57  59
ENDBRANCH  50  55
ENDBRANCH  48  50
ENDBRANCH   1  46
TORSDOF 26
ENDMDL
MODEL 3
REMARK VINA RESULT:      -7.2      2.510      7.996
REMARK  26 active torsions:
REMARK  status: ('A' for Active; 'I' for Inactive)
REMARK    1  A    between atoms: N_1  and  CA_2 
REMARK    2  A    between atoms: CA_2  and  CB_5 
REMARK    3  A    between atoms: CA_2  and  C_3 
REMARK       I    between atoms: C_3  and  N_20 
REMARK    4  A    between atoms: CB_5  and  CG_6 
REMARK    5  A    between atoms: CA_17  and  N_20 
REMARK    6  A    between atoms: CA_17  and  C_18 
REMARK       I    between atoms: C_18  and  N_35 
REMARK    7  A    between atoms: CA_22  and  CB_24 
REMARK    8  A    between atoms: CA_22  and  N_35 
REMARK    9  A    between atoms: CA_22  and  C_23 
REMARK       I    between atoms: C_23  and  N_44 
REMARK   10  A    between atoms: CB_24  and  CG_25 
REMARK   11  A    between atoms: CA_38  and  N_44 
REMARK   12  A    between atoms: CA_38  and  CB_40 
REMARK   13  A    between atoms: CA_38  and  C_39 
REMARK       I    between atoms: C_39  and  N_54 
REMARK   14  A    between atoms: CB_40  and  CG_41 
REMARK   15  A    between atoms: CG_41  and  CD_42 
REMARK   16  A    between atoms: CA_48  and  N_54 
REMARK   17  A    between atoms: CA_48  and  CB_50 
REMARK   18  A    between atoms: CA_48  and  C_49 
REMARK       I    between atoms: C_49  and  N_70 
REMARK   19  A    between atoms: CB_50  and  OG1_56 
REMARK   20  A    between atoms: CA_57  and  CB_59 
REMARK   21  A    between atoms: CA_57  and  N_70 
REMARK   22  A    between atoms: CA_57  and  C_58 
REMARK       I    between atoms: C_58  and  N_79 
REMARK   23  A    between atoms: CB_59  and  CG_60 
REMARK   24  A    between atoms: CA_73  and  N_79 
REMARK   25  A    between atoms: CA_73  and  CB_75 
REMARK   26  A    between atoms: CA_73  and  C_74 
ROOT
ATOM      1  CA  GLU B   4       6.533  91.813  61.582  1.00  0.00     0.177 C 
ENDROOT
BRANCH   1   2
ATOM      2  N   GLU B   4       6.900  90.440  61.922  1.00  0.00    -0.346 N 
ATOM      3  C   TRP B   3       7.121  89.529  60.978  1.00  0.00     0.241 C 
ATOM      4  O   TRP B   3       7.030  89.780  59.777  1.00  0.00    -0.271 OA
ATOM      5  H   GLU B   4       6.988  90.187  62.865  1.00  0.23     0.163 HD
BRANCH   3   6
ATOM      6  CA  TRP B   3       7.501  88.130  61.455  1.00  0.00     0.181 C 
BRANCH   6   7
ATOM      7  CB  TRP B   3       6.235  87.320  61.766  1.00  0.00     0.075 C 
BRANCH   7   8
ATOM      8  CG  TRP B   3       5.516  86.819  60.548  1.00  0.00    -0.028 A 
ATOM      9  CD1 TRP B   3       6.079  86.260  59.436  1.00  0.00     0.096 A 
ATOM     10  NE1 TRP B   3       5.102  85.931  58.526  1.00  0.00    -0.365 N 
ATOM     11  CE2 TRP B   3       3.881  86.279  59.040  1.00  0.00     0.042 A 
ATOM     12  HE1 TRP B   3       5.257  85.515  57.652  1.00  0.23     0.165 HD
ATOM     13  CZ2 TRP B   3       2.606  86.145  58.495  1.00  0.00     0.030 A 
ATOM     14  CD2 TRP B   3       4.103  86.843  60.312  1.00  0.00    -0.002 A 
ATOM     15  CH2 TRP B   3       1.549  86.585  59.243  1.00  0.00     0.002 A 
ATOM     16  CZ3 TRP B   3       1.737  87.151  60.509  1.00  0.00     0.001 A 
ATOM     17  CE3 TRP B   3       3.001  87.285  61.052  1.00  0.00     0.014 A 
ENDBRANCH   7   8
ENDBRANCH   6   7
BRANCH   6  18
ATOM     18  N   TRP B   3       8.382  88.193  62.619  1.00  0.00    -0.346 N 
ATOM     19  C   GLY B   2       7.901  88.339  63.851  1.00  0.00     0.236 C 
ATOM     20  O   GLY B   2       6.699  88.431  64.095  1.00  0.00    -0.272 OA
ATOM     21  H   TRP B   3       9.352  88.120  62.489  1.00  0.23     0.163 HD
BRANCH  19  22
ATOM     22  CA  GLY B   2       8.923  88.384  64.971  1.00  0.00     0.225 C 
BRANCH  22  23
ATOM     23  N   GLY B   2       8.307  88.428  66.285  1.00  0.00    -0.350 N 
ATOM     24  H   GLY B   2       7.417  88.042  66.419  1.00  0.23     0.163 HD
ATOM     25  C   TRP B   1       8.923  88.990  67.325  1.00  0.00     0.254 C 
ATOM     26  O   TRP B   1      10.056  89.492  67.227  1.00  0.00    -0.271 OA
BRANCH  25  27
ATOM     27  CA  TRP B   1       8.183  88.985  68.643  1.00  0.00     0.354 C 
BRANCH  27  28
ATOM     28  N   TRP B   1       9.115  89.011  69.766  1.00  0.00     0.312 N 
ATOM     29  H   TRP B   1       8.710  89.610  70.552  1.00  0.00     0.359 HD
ENDBRANCH  27  28
BRANCH  27  30
ATOM     30  CB  TRP B   1       7.250  90.224  68.726  1.00  0.00     0.089 C 
BRANCH  30  31
ATOM     31  CG  TRP B   1       5.768  89.898  68.940  1.00  0.00    -0.028 A 
ATOM     32  CD1 TRP B   1       5.236  89.164  70.019  1.00  0.00     0.096 A 
ATOM     33  NE1 TRP B   1       3.848  88.969  69.879  1.00  0.00    -0.365 N 
ATOM     34  HE1 TRP B   1       3.216  88.440  70.492  1.00  0.00     0.165 HD
ATOM     35  CE2 TRP B   1       3.543  89.598  68.682  1.00  0.00     0.042 A 
ATOM     36  CD2 TRP B   1       4.705  90.166  68.103  1.00  0.00    -0.002 A 
ATOM     37  CZ2 TRP B   1       2.299  89.709  68.023  1.00  0.00     0.030 A 
ATOM     38  CE3 TRP B   1       4.635  90.839  66.857  1.00  0.00     0.014 A 
ATOM     39  CZ3 TRP B   1       3.394  90.942  66.228  1.00  0.00     0.001 A 
ATOM     40  CH2 TRP B   1       2.242  90.388  66.803  1.00  0.00     0.002 A 
ENDBRANCH  30  31
ENDBRANCH  27  30
ENDBRANCH  25  27
ENDBRANCH  22  23
ENDBRANCH  19  22
ENDBRANCH   6  18
ENDBRANCH   3   6
ENDBRANCH   1   2
BRANCH   1  41
ATOM     41  CB  GLU B   4       5.049  91.896  61.219  1.00  0.00     0.045 C 
BRANCH  41  42
ATOM     42  CG  GLU B   4       4.791  92.582  59.887  1.00  0.00     0.116 C 
BRANCH  42  43
ATOM     43  CD  GLU B   4       4.986  94.085  59.954  1.00  0.00     0.172 C 
ATOM     44  OE1 GLU B   4       4.267  94.742  60.735  1.00  0.00    -0.648 OA
ATOM     45  OE2 GLU B   4       5.858  94.603  59.225  1.00  0.00    -0.648 OA
ENDBRANCH  42  43
ENDBRANCH  41  42
ENDBRANCH   1  41
BRANCH   1  46
ATOM     46  C   GLU B   4       6.833  92.759  62.741  1.00  0.00     0.241 C 
ATOM     47  O   GLU B   4       5.939  93.435  63.250  1.00  0.00    -0.271 OA
ATOM     48  N   THR B   5       8.098  92.803  63.148  1.00  7.70    -0.344 N 
ATOM     49  H   THR B   5       8.763  92.240  62.698  1.00  0.23     0.163 HD
BRANCH  48  50
ATOM     50  CA  THR B   5       8.527  93.667  64.244  1.00  7.88     0.205 C 
BRANCH  50  51
ATOM     51  CB  THR B   5       8.573  92.878  65.554  1.00  4.05     0.146 C 
ATOM     52  CG2 THR B   5       7.295  92.980  66.358  1.00  3.72     0.042 C 
BRANCH  51  53
ATOM     53  OG1 THR B   5       8.815  91.505  65.304  1.00  7.31    -0.393 OA
ATOM     54  HG1 THR B   5       8.001  91.084  65.020  1.00  0.23     0.210 HD
ENDBRANCH  51  53
ENDBRANCH  50  51
BRANCH  50  55
ATOM     55  C   THR B   5       9.898  94.268  63.950  1.00  7.05     0.243 C 
ATOM     56  O   THR B   5      10.574  94.765  64.850  1.00  6.06    -0.271 OA
ATOM     57  N   TRP B   6      10.304  94.216  62.686  1.00  0.00    -0.346 N 
ATOM     58  H   TRP B   6       9.721  93.807  62.012  1.00  0.23     0.163 HD
BRANCH  57  59
ATOM     59  CA  TRP B   6      11.595  94.753  62.276  1.00  0.00     0.181 C 
BRANCH  59  60
ATOM     60  CB  TRP B   6      11.517  96.274  62.143  1.00  0.00     0.075 C 
BRANCH  60  61
ATOM     61  CG  TRP B   6      12.090  96.778  60.854  1.00  0.00    -0.028 A 
ATOM     62  CD2 TRP B   6      11.677  97.943  60.130  1.00  0.00    -0.002 A 
ATOM     63  CE2 TRP B   6      12.493  98.034  58.986  1.00  0.00     0.042 A 
ATOM     64  CE3 TRP B   6      10.697  98.917  60.338  1.00  0.00     0.014 A 
ATOM     65  CZ2 TRP B   6      12.357  99.061  58.056  1.00  0.00     0.030 A 
ATOM     66  NE1 TRP B   6      13.361  96.974  59.014  1.00  0.00    -0.365 N 
ATOM     67  CH2 TRP B   6      11.389 100.001  58.284  1.00  0.00     0.002 A 
ATOM     68  CZ3 TRP B   6      10.564  99.937  59.413  1.00  0.00     0.001 A 
ATOM     69  CD1 TRP B   6      13.112  96.224  60.138  1.00  0.00     0.096 A 
ATOM     70  HE1 TRP B   6      14.047  96.781  58.341  1.00  0.23     0.165 HD
ENDBRANCH  60  61
ENDBRANCH  59  60
BRANCH  59  71
ATOM     71  C   TRP B   6      12.686  94.367  63.271  1.00  0.00     0.241 C 
ATOM     72  N   VAL B   7      12.772  93.075  63.572  1.00  6.11    -0.344 N 
ATOM     73  H   VAL B   7      12.150  92.445  63.153  1.00  0.23     0.163 HD
ATOM     74  O   TRP B   6      13.428  95.222  63.756  1.00  0.00    -0.271 OA
BRANCH  72  75
ATOM     75  CA  VAL B   7      13.767  92.573  64.511  1.00  5.65     0.189 C 
BRANCH  75  76
ATOM     76  CB  VAL B   7      13.360  91.194  65.069  1.00  1.15     0.010 C 
ATOM     77  CG1 VAL B   7      13.007  91.299  66.545  1.00  4.96     0.012 C 
ATOM     78  CG2 VAL B   7      12.199  90.614  64.276  1.00  9.83     0.012 C 
ENDBRANCH  75  76
BRANCH  75  79
ATOM     79  C   VAL B   7      15.138  92.459  63.852  1.00  4.44     0.197 C 
ATOM     80  O   VAL B   7      16.146  92.729  64.538  1.00  0.00    -0.646 OA
ATOM     81  OXT VAL B   7      15.193  92.103  62.657  1.00  0.00    -0.646 OA
ENDBRANCH  75  79
ENDBRANCH  72  75
ENDBRANCH  59  71
ENDBRANCH  57  59
ENDBRANCH  50  55
ENDBRANCH  48  50
ENDBRANCH   1  46
TORSDOF 26
ENDMDL
MODEL 4
REMARK VINA RESULT:      -7.2      2.265      6.434
REMARK  26 active torsions:
REMARK  status: ('A' for Active; 'I' for Inactive)
REMARK    1  A    between atoms: N_1  and  CA_2 
REMARK    2  A    between atoms: CA_2  and  CB_5 
REMARK    3  A    between atoms: CA_2  and  C_3 
REMARK       I    between atoms: C_3  and  N_20 
REMARK    4  A    between atoms: CB_5  and  CG_6 
REMARK    5  A    between atoms: CA_17  and  N_20 
REMARK    6  A    between atoms: CA_17  and  C_18 
REMARK       I    between atoms: C_18  and  N_35 
REMARK    7  A    between atoms: CA_22  and  CB_24 
REMARK    8  A    between atoms: CA_22  and  N_35 
REMARK    9  A    between atoms: CA_22  and  C_23 
REMARK       I    between atoms: C_23  and  N_44 
REMARK   10  A    between atoms: CB_24  and  CG_25 
REMARK   11  A    between atoms: CA_38  and  N_44 
REMARK   12  A    between atoms: CA_38  and  CB_40 
REMARK   13  A    between atoms: CA_38  and  C_39 
REMARK       I    between atoms: C_39  and  N_54 
REMARK   14  A    between atoms: CB_40  and  CG_41 
REMARK   15  A    between atoms: CG_41  and  CD_42 
REMARK   16  A    between atoms: CA_48  and  N_54 
REMARK   17  A    between atoms: CA_48  and  CB_50 
REMARK   18  A    between atoms: CA_48  and  C_49 
REMARK       I    between atoms: C_49  and  N_70 
REMARK   19  A    between atoms: CB_50  and  OG1_56 
REMARK   20  A    between atoms: CA_57  and  CB_59 
REMARK   21  A    between atoms: CA_57  and  N_70 
REMARK   22  A    between atoms: CA_57  and  C_58 
REMARK       I    between atoms: C_58  and  N_79 
REMARK   23  A    between atoms: CB_59  and  CG_60 
REMARK   24  A    between atoms: CA_73  and  N_79 
REMARK   25  A    between atoms: CA_73  and  CB_75 
REMARK   26  A    between atoms: CA_73  and  C_74 
ROOT
ATOM      1  CA  GLU B   4       5.583  88.598  60.686  1.00  0.00     0.177 C 
ENDROOT
BRANCH   1   2
ATOM      2  N   GLU B   4       4.447  88.873  61.563  1.00  0.00    -0.346 N 
ATOM      3  C   TRP B   3       4.034  87.981  62.460  1.00  0.00     0.241 C 
ATOM      4  O   TRP B   3       4.572  86.884  62.604  1.00  0.00    -0.271 OA
ATOM      5  H   GLU B   4       3.982  89.732  61.490  1.00  0.23     0.163 HD
BRANCH   3   6
ATOM      6  CA  TRP B   3       2.839  88.381  63.320  1.00  0.00     0.181 C 
BRANCH   6   7
ATOM      7  CB  TRP B   3       1.779  89.077  62.454  1.00  0.00     0.075 C 
BRANCH   7   8
ATOM      8  CG  TRP B   3       1.229  88.218  61.354  1.00  0.00    -0.028 A 
ATOM      9  CD1 TRP B   3       0.584  87.022  61.493  1.00  0.00     0.096 A 
ATOM     10  NE1 TRP B   3       0.233  86.528  60.258  1.00  0.00    -0.365 N 
ATOM     11  CE2 TRP B   3       0.653  87.405  59.293  1.00  0.00     0.042 A 
ATOM     12  HE1 TRP B   3      -0.241  85.685  60.097  1.00  0.23     0.165 HD
ATOM     13  CZ2 TRP B   3       0.530  87.342  57.907  1.00  0.00     0.030 A 
ATOM     14  CD2 TRP B   3       1.286  88.481  59.946  1.00  0.00    -0.002 A 
ATOM     15  CH2 TRP B   3       1.050  88.376  57.178  1.00  0.00     0.002 A 
ATOM     16  CZ3 TRP B   3       1.686  89.457  57.798  1.00  0.00     0.001 A 
ATOM     17  CE3 TRP B   3       1.810  89.522  59.173  1.00  0.00     0.014 A 
ENDBRANCH   7   8
ENDBRANCH   6   7
BRANCH   6  18
ATOM     18  N   TRP B   3       3.253  89.236  64.429  1.00  0.00    -0.346 N 
ATOM     19  C   GLY B   2       3.620  90.500  64.237  1.00  0.00     0.236 C 
ATOM     20  O   GLY B   2       3.638  91.032  63.128  1.00  0.00    -0.272 OA
ATOM     21  H   TRP B   3       3.255  88.870  65.340  1.00  0.23     0.163 HD
BRANCH  19  22
ATOM     22  CA  GLY B   2       4.023  91.280  65.474  1.00  0.00     0.225 C 
BRANCH  22  23
ATOM     23  N   GLY B   2       4.579  90.430  66.512  1.00  0.00    -0.350 N 
ATOM     24  H   GLY B   2       5.453  90.008  66.379  1.00  0.23     0.163 HD
ATOM     25  C   TRP B   1       3.924  90.200  67.650  1.00  0.00     0.254 C 
ATOM     26  O   TRP B   1       2.815  90.709  67.885  1.00  0.00    -0.271 OA
BRANCH  25  27
ATOM     27  CA  TRP B   1       4.595  89.292  68.654  1.00  0.00     0.354 C 
BRANCH  27  28
ATOM     28  N   TRP B   1       3.735  88.164  68.996  1.00  0.00     0.312 N 
ATOM     29  H   TRP B   1       3.115  87.921  68.160  1.00  0.00     0.359 HD
ENDBRANCH  27  28
BRANCH  27  30
ATOM     30  CB  TRP B   1       5.930  88.757  68.068  1.00  0.00     0.089 C 
BRANCH  30  31
ATOM     31  CG  TRP B   1       7.135  88.873  69.008  1.00  0.00    -0.028 A 
ATOM     32  CD1 TRP B   1       7.531  90.036  69.698  1.00  0.00     0.096 A 
ATOM     33  NE1 TRP B   1       8.727  89.833  70.414  1.00  0.00    -0.365 N 
ATOM     34  HE1 TRP B   1       9.259  90.514  70.968  1.00  0.00     0.165 HD
ATOM     35  CE2 TRP B   1       9.057  88.514  70.141  1.00  0.00     0.042 A 
ATOM     36  CD2 TRP B   1       8.095  87.921  69.287  1.00  0.00    -0.002 A 
ATOM     37  CZ2 TRP B   1      10.171  87.765  70.578  1.00  0.00     0.030 A 
ATOM     38  CE3 TRP B   1       8.245  86.580  68.852  1.00  0.00     0.014 A 
ATOM     39  CZ3 TRP B   1       9.350  85.858  69.302  1.00  0.00     0.001 A 
ATOM     40  CH2 TRP B   1      10.299  86.439  70.154  1.00  0.00     0.002 A 
ENDBRANCH  30  31
ENDBRANCH  27  30
ENDBRANCH  25  27
ENDBRANCH  22  23
ENDBRANCH  19  22
ENDBRANCH   6  18
ENDBRANCH   3   6
ENDBRANCH   1   2
BRANCH   1  41
ATOM     41  CB  GLU B   4       5.104  88.027  59.351  1.00  0.00     0.045 C 
BRANCH  41  42
ATOM     42  CG  GLU B   4       6.053  86.996  58.760  1.00  0.00     0.116 C 
BRANCH  42  43
ATOM     43  CD  GLU B   4       6.798  86.210  59.821  1.00  0.00     0.172 C 
ATOM     44  OE1 GLU B   4       6.222  85.239  60.354  1.00  0.00    -0.648 OA
ATOM     45  OE2 GLU B   4       7.958  86.565  60.118  1.00  0.00    -0.648 OA
ENDBRANCH  42  43
ENDBRANCH  41  42
ENDBRANCH   1  41
BRANCH   1  46
ATOM     46  C   GLU B   4       6.399  89.865  60.442  1.00  0.00     0.241 C 
ATOM     47  O   GLU B   4       7.277  89.892  59.579  1.00  0.00    -0.271 OA
ATOM     48  N   THR B   5       6.104  90.909  61.210  1.00  7.70    -0.344 N 
ATOM     49  H   THR B   5       5.394  90.821  61.880  1.00  0.23     0.163 HD
BRANCH  48  50
ATOM     50  CA  THR B   5       6.808  92.182  61.086  1.00  7.88     0.205 C 
BRANCH  50  51
ATOM     51  CB  THR B   5       6.155  93.046  60.006  1.00  4.05     0.146 C 
ATOM     52  CG2 THR B   5       4.672  92.790  59.851  1.00  3.72     0.042 C 
BRANCH  51  53
ATOM     53  OG1 THR B   5       6.325  94.422  60.295  1.00  7.31    -0.393 OA
ATOM     54  HG1 THR B   5       5.523  94.767  60.694  1.00  0.23     0.210 HD
ENDBRANCH  51  53
ENDBRANCH  50  51
BRANCH  50  55
ATOM     55  C   THR B   5       6.810  92.927  62.417  1.00  7.05     0.243 C 
ATOM     56  O   THR B   5       5.797  93.499  62.820  1.00  6.06    -0.271 OA
ATOM     57  N   TRP B   6       7.951  92.913  63.097  1.00  0.00    -0.346 N 
ATOM     58  H   TRP B   6       8.724  92.439  62.725  1.00  0.23     0.163 HD
BRANCH  57  59
ATOM     59  CA  TRP B   6       8.081  93.584  64.384  1.00  0.00     0.181 C 
BRANCH  59  60
ATOM     60  CB  TRP B   6       7.420  92.752  65.483  1.00  0.00     0.075 C 
BRANCH  60  61
ATOM     61  CG  TRP B   6       8.220  91.543  65.861  1.00  0.00    -0.028 A 
ATOM     62  CD2 TRP B   6       8.116  90.233  65.289  1.00  0.00    -0.002 A 
ATOM     63  CE2 TRP B   6       9.059  89.418  65.942  1.00  0.00     0.042 A 
ATOM     64  CE3 TRP B   6       7.317  89.673  64.289  1.00  0.00     0.014 A 
ATOM     65  CZ2 TRP B   6       9.224  88.072  65.625  1.00  0.00     0.030 A 
ATOM     66  NE1 TRP B   6       9.706  90.195  66.867  1.00  0.00    -0.365 N 
ATOM     67  CH2 TRP B   6       8.429  87.548  64.643  1.00  0.00     0.002 A 
ATOM     68  CZ3 TRP B   6       7.482  88.335  63.976  1.00  0.00     0.001 A 
ATOM     69  CD1 TRP B   6       9.195  91.469  66.812  1.00  0.00     0.096 A 
ATOM     70  HE1 TRP B   6      10.417  89.891  67.470  1.00  0.23     0.165 HD
ENDBRANCH  60  61
ENDBRANCH  59  60
BRANCH  59  71
ATOM     71  C   TRP B   6       9.547  93.833  64.723  1.00  0.00     0.241 C 
ATOM     72  N   VAL B   7      10.432  93.073  64.085  1.00  6.11    -0.344 N 
ATOM     73  H   VAL B   7      10.113  92.407  63.442  1.00  0.23     0.163 HD
ATOM     74  O   TRP B   6       9.867  94.691  65.547  1.00  0.00    -0.271 OA
BRANCH  72  75
ATOM     75  CA  VAL B   7      11.864  93.206  64.318  1.00  5.65     0.189 C 
BRANCH  75  76
ATOM     76  CB  VAL B   7      12.539  91.825  64.439  1.00  1.15     0.010 C 
ATOM     77  CG1 VAL B   7      12.898  91.531  65.888  1.00  4.96     0.012 C 
ATOM     78  CG2 VAL B   7      11.640  90.736  63.874  1.00  9.83     0.012 C 
ENDBRANCH  75  76
BRANCH  75  79
ATOM     79  C   VAL B   7      12.535  93.993  63.196  1.00  4.44     0.197 C 
ATOM     80  O   VAL B   7      11.859  94.852  62.593  1.00  0.00    -0.646 OA
ATOM     81  OXT VAL B   7      13.728  93.742  62.929  1.00  0.00    -0.646 OA
ENDBRANCH  75  79
ENDBRANCH  72  75
ENDBRANCH  59  71
ENDBRANCH  57  59
ENDBRANCH  50  55
ENDBRANCH  48  50
ENDBRANCH   1  46
TORSDOF 26
ENDMDL
MODEL 5
REMARK VINA RESULT:      -7.0      2.910      8.500
REMARK  26 active torsions:
REMARK  status: ('A' for Active; 'I' for Inactive)
REMARK    1  A    between atoms: N_1  and  CA_2 
REMARK    2  A    between atoms: CA_2  and  CB_5 
REMARK    3  A    between atoms: CA_2  and  C_3 
REMARK       I    between atoms: C_3  and  N_20 
REMARK    4  A    between atoms: CB_5  and  CG_6 
REMARK    5  A    between atoms: CA_17  and  N_20 
REMARK    6  A    between atoms: CA_17  and  C_18 
REMARK       I    between atoms: C_18  and  N_35 
REMARK    7  A    between atoms: CA_22  and  CB_24 
REMARK    8  A    between atoms: CA_22  and  N_35 
REMARK    9  A    between atoms: CA_22  and  C_23 
REMARK       I    between atoms: C_23  and  N_44 
REMARK   10  A    between atoms: CB_24  and  CG_25 
REMARK   11  A    between atoms: CA_38  and  N_44 
REMARK   12  A    between atoms: CA_38  and  CB_40 
REMARK   13  A    between atoms: CA_38  and  C_39 
REMARK       I    between atoms: C_39  and  N_54 
REMARK   14  A    between atoms: CB_40  and  CG_41 
REMARK   15  A    between atoms: CG_41  and  CD_42 
REMARK   16  A    between atoms: CA_48  and  N_54 
REMARK   17  A    between atoms: CA_48  and  CB_50 
REMARK   18  A    between atoms: CA_48  and  C_49 
REMARK       I    between atoms: C_49  and  N_70 
REMARK   19  A    between atoms: CB_50  and  OG1_56 
REMARK   20  A    between atoms: CA_57  and  CB_59 
REMARK   21  A    between atoms: CA_57  and  N_70 
REMARK   22  A    between atoms: CA_57  and  C_58 
REMARK       I    between atoms: C_58  and  N_79 
REMARK   23  A    between atoms: CB_59  and  CG_60 
REMARK   24  A    between atoms: CA_73  and  N_79 
REMARK   25  A    between atoms: CA_73  and  CB_75 
REMARK   26  A    between atoms: CA_73  and  C_74 
ROOT
ATOM      1  CA  GLU B   4       6.920  92.325  61.945  1.00  0.00     0.177 C 
ENDROOT
BRANCH   1   2
ATOM      2  N   GLU B   4       7.409  90.955  61.806  1.00  0.00    -0.346 N 
ATOM      3  C   TRP B   3       7.009  90.177  60.803  1.00  0.00     0.241 C 
ATOM      4  O   TRP B   3       6.215  90.555  59.943  1.00  0.00    -0.271 OA
ATOM      5  H   GLU B   4       8.044  90.604  62.463  1.00  0.23     0.163 HD
BRANCH   3   6
ATOM      6  CA  TRP B   3       7.590  88.766  60.762  1.00  0.00     0.181 C 
BRANCH   6   7
ATOM      7  CB  TRP B   3       6.490  87.757  60.402  1.00  0.00     0.075 C 
BRANCH   7   8
ATOM      8  CG  TRP B   3       6.769  86.969  59.156  1.00  0.00    -0.028 A 
ATOM      9  CD1 TRP B   3       6.786  87.441  57.875  1.00  0.00     0.096 A 
ATOM     10  NE1 TRP B   3       7.071  86.420  56.998  1.00  0.00    -0.365 N 
ATOM     11  CE2 TRP B   3       7.241  85.261  57.708  1.00  0.00     0.042 A 
ATOM     12  HE1 TRP B   3       7.141  86.510  56.025  1.00  0.23     0.165 HD
ATOM     13  CZ2 TRP B   3       7.541  83.974  57.267  1.00  0.00     0.030 A 
ATOM     14  CD2 TRP B   3       7.057  85.567  59.070  1.00  0.00    -0.002 A 
ATOM     15  CH2 TRP B   3       7.654  82.991  58.212  1.00  0.00     0.002 A 
ATOM     16  CZ3 TRP B   3       7.475  83.265  59.573  1.00  0.00     0.001 A 
ATOM     17  CE3 TRP B   3       7.177  84.541  60.012  1.00  0.00     0.014 A 
ENDBRANCH   7   8
ENDBRANCH   6   7
BRANCH   6  18
ATOM     18  N   TRP B   3       8.224  88.421  62.032  1.00  0.00    -0.346 N 
ATOM     19  C   GLY B   2       7.523  88.334  63.160  1.00  0.00     0.236 C 
ATOM     20  O   GLY B   2       6.311  88.535  63.214  1.00  0.00    -0.272 OA
ATOM     21  H   TRP B   3       9.188  88.244  62.052  1.00  0.23     0.163 HD
BRANCH  19  22
ATOM     22  CA  GLY B   2       8.301  87.962  64.407  1.00  0.00     0.225 C 
BRANCH  22  23
ATOM     23  N   GLY B   2       7.479  87.984  65.604  1.00  0.00    -0.350 N 
ATOM     24  H   GLY B   2       6.526  87.768  65.544  1.00  0.23     0.163 HD
ATOM     25  C   TRP B   1       7.989  88.302  66.794  1.00  0.00     0.254 C 
ATOM     26  O   TRP B   1       9.191  88.580  66.942  1.00  0.00    -0.271 OA
BRANCH  25  27
ATOM     27  CA  TRP B   1       7.038  88.300  67.968  1.00  0.00     0.354 C 
BRANCH  27  28
ATOM     28  N   TRP B   1       7.636  87.644  69.126  1.00  0.00     0.312 N 
ATOM     29  H   TRP B   1       7.063  87.868  69.999  1.00  0.00     0.359 HD
ENDBRANCH  27  28
BRANCH  27  30
ATOM     30  CB  TRP B   1       6.667  89.761  68.345  1.00  0.00     0.089 C 
BRANCH  30  31
ATOM     31  CG  TRP B   1       5.648  90.425  67.414  1.00  0.00    -0.028 A 
ATOM     32  CD1 TRP B   1       5.946  91.073  66.198  1.00  0.00     0.096 A 
ATOM     33  NE1 TRP B   1       4.798  91.651  65.623  1.00  0.00    -0.365 N 
ATOM     34  HE1 TRP B   1       4.730  92.213  64.765  1.00  0.00     0.165 HD
ATOM     35  CE2 TRP B   1       3.787  91.345  66.521  1.00  0.00     0.042 A 
ATOM     36  CD2 TRP B   1       4.294  90.600  67.614  1.00  0.00    -0.002 A 
ATOM     37  CZ2 TRP B   1       2.417  91.685  66.473  1.00  0.00     0.030 A 
ATOM     38  CE3 TRP B   1       3.440  90.199  68.672  1.00  0.00     0.014 A 
ATOM     39  CZ3 TRP B   1       2.089  90.540  68.599  1.00  0.00     0.001 A 
ATOM     40  CH2 TRP B   1       1.583  91.270  67.515  1.00  0.00     0.002 A 
ENDBRANCH  30  31
ENDBRANCH  27  30
ENDBRANCH  25  27
ENDBRANCH  22  23
ENDBRANCH  19  22
ENDBRANCH   6  18
ENDBRANCH   3   6
ENDBRANCH   1   2
BRANCH   1  41
ATOM     41  CB  GLU B   4       5.395  92.343  62.053  1.00  0.00     0.045 C 
BRANCH  41  42
ATOM     42  CG  GLU B   4       4.765  93.611  61.501  1.00  0.00     0.116 C 
BRANCH  42  43
ATOM     43  CD  GLU B   4       4.986  93.774  60.009  1.00  0.00     0.172 C 
ATOM     44  OE1 GLU B   4       5.856  94.582  59.623  1.00  0.00    -0.648 OA
ATOM     45  OE2 GLU B   4       4.288  93.094  59.228  1.00  0.00    -0.648 OA
ENDBRANCH  42  43
ENDBRANCH  41  42
ENDBRANCH   1  41
BRANCH   1  46
ATOM     46  C   GLU B   4       7.531  92.998  63.170  1.00  0.00     0.241 C 
ATOM     47  O   GLU B   4       6.814  93.440  64.069  1.00  0.00    -0.271 OA
ATOM     48  N   THR B   5       8.858  93.075  63.196  1.00  7.70    -0.344 N 
ATOM     49  H   THR B   5       9.371  92.705  62.447  1.00  0.23     0.163 HD
BRANCH  48  50
ATOM     50  CA  THR B   5       9.574  93.696  64.307  1.00  7.88     0.205 C 
BRANCH  50  51
ATOM     51  CB  THR B   5      10.191  92.624  65.206  1.00  4.05     0.146 C 
ATOM     52  CG2 THR B   5       9.921  91.214  64.727  1.00  3.72     0.042 C 
BRANCH  51  53
ATOM     53  OG1 THR B   5      11.596  92.788  65.289  1.00  7.31    -0.393 OA
ATOM     54  HG1 THR B   5      11.912  92.426  66.120  1.00  0.23     0.210 HD
ENDBRANCH  51  53
ENDBRANCH  50  51
BRANCH  50  55
ATOM     55  C   THR B   5      10.663  94.630  63.788  1.00  7.05     0.243 C 
ATOM     56  O   THR B   5      11.211  95.437  64.539  1.00  6.06    -0.271 OA
ATOM     57  N   TRP B   6      10.975  94.514  62.502  1.00  0.00    -0.346 N 
ATOM     58  H   TRP B   6      10.505  93.851  61.954  1.00  0.23     0.163 HD
BRANCH  57  59
ATOM     59  CA  TRP B   6      12.001  95.346  61.887  1.00  0.00     0.181 C 
BRANCH  59  60
ATOM     60  CB  TRP B   6      11.464  96.758  61.650  1.00  0.00     0.075 C 
BRANCH  60  61
ATOM     61  CG  TRP B   6      11.997  97.383  60.398  1.00  0.00    -0.028 A 
ATOM     62  CD2 TRP B   6      11.576  98.621  59.812  1.00  0.00    -0.002 A 
ATOM     63  CE2 TRP B   6      12.350  98.818  58.653  1.00  0.00     0.042 A 
ATOM     64  CE3 TRP B   6      10.619  99.580  60.155  1.00  0.00     0.014 A 
ATOM     65  CZ2 TRP B   6      12.197  99.936  57.837  1.00  0.00     0.030 A 
ATOM     66  NE1 TRP B   6      13.202  97.750  58.540  1.00  0.00    -0.365 N 
ATOM     67  CH2 TRP B   6      11.253 100.859  58.195  1.00  0.00     0.002 A 
ATOM     68  CZ3 TRP B   6      10.468 100.690  59.343  1.00  0.00     0.001 A 
ATOM     69  CD1 TRP B   6      12.983  96.893  59.592  1.00  0.00     0.096 A 
ATOM     70  HE1 TRP B   6      13.861  97.619  57.825  1.00  0.23     0.165 HD
ENDBRANCH  60  61
ENDBRANCH  59  60
BRANCH  59  71
ATOM     71  C   TRP B   6      13.253  95.398  62.756  1.00  0.00     0.241 C 
ATOM     72  N   VAL B   7      13.791  94.225  63.077  1.00  6.11    -0.344 N 
ATOM     73  H   VAL B   7      13.372  93.403  62.750  1.00  0.23     0.163 HD
ATOM     74  O   TRP B   6      13.718  96.476  63.129  1.00  0.00    -0.271 OA
BRANCH  72  75
ATOM     75  CA  VAL B   7      14.987  94.132  63.905  1.00  5.65     0.189 C 
BRANCH  75  76
ATOM     76  CB  VAL B   7      15.509  92.683  63.970  1.00  1.15     0.010 C 
ATOM     77  CG1 VAL B   7      14.726  91.879  64.998  1.00  4.96     0.012 C 
ATOM     78  CG2 VAL B   7      15.437  92.024  62.601  1.00  9.83     0.012 C 
ENDBRANCH  75  76
BRANCH  75  79
ATOM     79  C   VAL B   7      16.095  95.038  63.375  1.00  4.44     0.197 C 
ATOM     80  O   VAL B   7      16.621  95.849  64.166  1.00  0.00    -0.646 OA
ATOM     81  OXT VAL B   7      16.426  94.930  62.177  1.00  0.00    -0.646 OA
ENDBRANCH  75  79
ENDBRANCH  72  75
ENDBRANCH  59  71
ENDBRANCH  57  59
ENDBRANCH  50  55
ENDBRANCH  48  50
ENDBRANCH   1  46
TORSDOF 26
ENDMDL
MODEL 6
REMARK VINA RESULT:      -6.0      2.769      7.644
REMARK  26 active torsions:
REMARK  status: ('A' for Active; 'I' for Inactive)
REMARK    1  A    between atoms: N_1  and  CA_2 
REMARK    2  A    between atoms: CA_2  and  CB_5 
REMARK    3  A    between atoms: CA_2  and  C_3 
REMARK       I    between atoms: C_3  and  N_20 
REMARK    4  A    between atoms: CB_5  and  CG_6 
REMARK    5  A    between atoms: CA_17  and  N_20 
REMARK    6  A    between atoms: CA_17  and  C_18 
REMARK       I    between atoms: C_18  and  N_35 
REMARK    7  A    between atoms: CA_22  and  CB_24 
REMARK    8  A    between atoms: CA_22  and  N_35 
REMARK    9  A    between atoms: CA_22  and  C_23 
REMARK       I    between atoms: C_23  and  N_44 
REMARK   10  A    between atoms: CB_24  and  CG_25 
REMARK   11  A    between atoms: CA_38  and  N_44 
REMARK   12  A    between atoms: CA_38  and  CB_40 
REMARK   13  A    between atoms: CA_38  and  C_39 
REMARK       I    between atoms: C_39  and  N_54 
REMARK   14  A    between atoms: CB_40  and  CG_41 
REMARK   15  A    between atoms: CG_41  and  CD_42 
REMARK   16  A    between atoms: CA_48  and  N_54 
REMARK   17  A    between atoms: CA_48  and  CB_50 
REMARK   18  A    between atoms: CA_48  and  C_49 
REMARK       I    between atoms: C_49  and  N_70 
REMARK   19  A    between atoms: CB_50  and  OG1_56 
REMARK   20  A    between atoms: CA_57  and  CB_59 
REMARK   21  A    between atoms: CA_57  and  N_70 
REMARK   22  A    between atoms: CA_57  and  C_58 
REMARK       I    between atoms: C_58  and  N_79 
REMARK   23  A    between atoms: CB_59  and  CG_60 
REMARK   24  A    between atoms: CA_73  and  N_79 
REMARK   25  A    between atoms: CA_73  and  CB_75 
REMARK   26  A    between atoms: CA_73  and  C_74 
ROOT
ATOM      1  CA  GLU B   4       6.228  92.387  61.893  1.00  0.00     0.177 C 
ENDROOT
BRANCH   1   2
ATOM      2  N   GLU B   4       6.153  90.928  61.910  1.00  0.00    -0.346 N 
ATOM      3  C   TRP B   3       5.153  90.294  62.517  1.00  0.00     0.241 C 
ATOM      4  O   TRP B   3       4.242  90.887  63.094  1.00  0.00    -0.271 OA
ATOM      5  H   GLU B   4       6.852  90.407  61.464  1.00  0.23     0.163 HD
BRANCH   3   6
ATOM      6  CA  TRP B   3       5.181  88.770  62.465  1.00  0.00     0.181 C 
BRANCH   6   7
ATOM      7  CB  TRP B   3       4.060  88.195  63.343  1.00  0.00     0.075 C 
BRANCH   7   8
ATOM      8  CG  TRP B   3       2.873  87.696  62.571  1.00  0.00    -0.028 A 
ATOM      9  CD1 TRP B   3       1.884  88.453  62.012  1.00  0.00     0.096 A 
ATOM     10  NE1 TRP B   3       0.962  87.642  61.391  1.00  0.00    -0.365 N 
ATOM     11  CE2 TRP B   3       1.347  86.336  61.544  1.00  0.00     0.042 A 
ATOM     12  HE1 TRP B   3       0.162  87.951  60.916  1.00  0.23     0.165 HD
ATOM     13  CZ2 TRP B   3       0.742  85.164  61.095  1.00  0.00     0.030 A 
ATOM     14  CD2 TRP B   3       2.545  86.331  62.283  1.00  0.00    -0.002 A 
ATOM     15  CH2 TRP B   3       1.356  83.980  61.397  1.00  0.00     0.002 A 
ATOM     16  CZ3 TRP B   3       2.547  83.943  62.132  1.00  0.00     0.001 A 
ATOM     17  CE3 TRP B   3       3.148  85.104  62.578  1.00  0.00     0.014 A 
ENDBRANCH   7   8
ENDBRANCH   6   7
BRANCH   6  18
ATOM     18  N   TRP B   3       6.484  88.254  62.875  1.00  0.00    -0.346 N 
ATOM     19  C   GLY B   2       7.099  88.699  63.968  1.00  0.00     0.236 C 
ATOM     20  O   GLY B   2       6.622  89.565  64.699  1.00  0.00    -0.272 OA
ATOM     21  H   TRP B   3       6.914  87.557  62.334  1.00  0.23     0.163 HD
BRANCH  19  22
ATOM     22  CA  GLY B   2       8.445  88.077  64.283  1.00  0.00     0.225 C 
BRANCH  22  23
ATOM     23  N   GLY B   2       8.486  87.477  65.605  1.00  0.00    -0.350 N 
ATOM     24  H   GLY B   2       8.137  86.571  65.740  1.00  0.23     0.163 HD
ATOM     25  C   TRP B   1       8.984  88.132  66.653  1.00  0.00     0.254 C 
ATOM     26  O   TRP B   1       9.449  89.280  66.551  1.00  0.00    -0.271 OA
BRANCH  25  27
ATOM     27  CA  TRP B   1       8.967  87.412  67.981  1.00  0.00     0.354 C 
BRANCH  27  28
ATOM     28  N   TRP B   1      10.299  87.383  68.578  1.00  0.00     0.312 N 
ATOM     29  H   TRP B   1      10.544  86.380  68.854  1.00  0.00     0.359 HD
ENDBRANCH  27  28
BRANCH  27  30
ATOM     30  CB  TRP B   1       7.988  88.126  68.954  1.00  0.00     0.089 C 
BRANCH  30  31
ATOM     31  CG  TRP B   1       6.508  87.998  68.583  1.00  0.00    -0.028 A 
ATOM     32  CD1 TRP B   1       5.753  86.808  68.614  1.00  0.00     0.096 A 
ATOM     33  NE1 TRP B   1       4.444  87.011  68.135  1.00  0.00    -0.365 N 
ATOM     34  HE1 TRP B   1       3.698  86.317  68.010  1.00  0.00     0.165 HD
ATOM     35  CE2 TRP B   1       4.417  88.357  67.804  1.00  0.00     0.042 A 
ATOM     36  CD2 TRP B   1       5.668  88.966  68.073  1.00  0.00    -0.002 A 
ATOM     37  CZ2 TRP B   1       3.363  89.121  67.256  1.00  0.00     0.030 A 
ATOM     38  CE3 TRP B   1       5.879  90.338  67.785  1.00  0.00     0.014 A 
ATOM     39  CZ3 TRP B   1       4.821  91.074  67.250  1.00  0.00     0.001 A 
ATOM     40  CH2 TRP B   1       3.580  90.476  66.992  1.00  0.00     0.002 A 
ENDBRANCH  30  31
ENDBRANCH  27  30
ENDBRANCH  25  27
ENDBRANCH  22  23
ENDBRANCH  19  22
ENDBRANCH   6  18
ENDBRANCH   3   6
ENDBRANCH   1   2
BRANCH   1  41
ATOM     41  CB  GLU B   4       4.831  92.995  61.757  1.00  0.00     0.045 C 
BRANCH  41  42
ATOM     42  CG  GLU B   4       4.804  94.267  60.925  1.00  0.00     0.116 C 
BRANCH  42  43
ATOM     43  CD  GLU B   4       5.154  94.023  59.469  1.00  0.00     0.172 C 
ATOM     44  OE1 GLU B   4       6.008  94.760  58.933  1.00  0.00    -0.648 OA
ATOM     45  OE2 GLU B   4       4.575  93.095  58.867  1.00  0.00    -0.648 OA
ENDBRANCH  42  43
ENDBRANCH  41  42
ENDBRANCH   1  41
BRANCH   1  46
ATOM     46  C   GLU B   4       6.896  92.912  63.160  1.00  0.00     0.241 C 
ATOM     47  O   GLU B   4       6.233  93.151  64.170  1.00  0.00    -0.271 OA
ATOM     48  N   THR B   5       8.212  93.093  63.096  1.00  7.70    -0.344 N 
ATOM     49  H   THR B   5       8.681  92.886  62.261  1.00  0.23     0.163 HD
BRANCH  48  50
ATOM     50  CA  THR B   5       8.979  93.593  64.234  1.00  7.88     0.205 C 
BRANCH  50  51
ATOM     51  CB  THR B   5       9.431  92.432  65.121  1.00  4.05     0.146 C 
ATOM     52  CG2 THR B   5      10.834  92.605  65.662  1.00  3.72     0.042 C 
BRANCH  51  53
ATOM     53  OG1 THR B   5       8.560  92.280  66.228  1.00  7.31    -0.393 OA
ATOM     54  HG1 THR B   5       9.065  92.337  67.042  1.00  0.23     0.210 HD
ENDBRANCH  51  53
ENDBRANCH  50  51
BRANCH  50  55
ATOM     55  C   THR B   5      10.191  94.387  63.757  1.00  7.05     0.243 C 
ATOM     56  O   THR B   5      10.870  95.038  64.552  1.00  6.06    -0.271 OA
ATOM     57  N   TRP B   6      10.459  94.327  62.458  1.00  0.00    -0.346 N 
ATOM     58  H   TRP B   6       9.883  93.791  61.874  1.00  0.23     0.163 HD
BRANCH  57  59
ATOM     59  CA  TRP B   6      11.592  95.038  61.879  1.00  0.00     0.181 C 
BRANCH  59  60
ATOM     60  CB  TRP B   6      11.275  96.529  61.757  1.00  0.00     0.075 C 
BRANCH  60  61
ATOM     61  CG  TRP B   6      11.897  97.162  60.551  1.00  0.00    -0.028 A 
ATOM     62  CD2 TRP B   6      11.524  98.408  59.949  1.00  0.00    -0.002 A 
ATOM     63  CE2 TRP B   6      12.379  98.611  58.849  1.00  0.00     0.042 A 
ATOM     64  CE3 TRP B   6      10.551  99.369  60.233  1.00  0.00     0.014 A 
ATOM     65  CZ2 TRP B   6      12.288  99.737  58.035  1.00  0.00     0.030 A 
ATOM     66  NE1 TRP B   6      13.231  97.539  58.785  1.00  0.00    -0.365 N 
ATOM     67  CH2 TRP B   6      11.326 100.663  58.335  1.00  0.00     0.002 A 
ATOM     68  CZ3 TRP B   6      10.462 100.487  59.423  1.00  0.00     0.001 A 
ATOM     69  CD1 TRP B   6      12.935  96.674  59.811  1.00  0.00     0.096 A 
ATOM     70  HE1 TRP B   6      13.937  97.411  58.117  1.00  0.23     0.165 HD
ENDBRANCH  60  61
ENDBRANCH  59  60
BRANCH  59  71
ATOM     71  C   TRP B   6      12.850  94.835  62.718  1.00  0.00     0.241 C 
ATOM     72  N   VAL B   7      13.231  93.575  62.904  1.00  6.11    -0.344 N 
ATOM     73  H   VAL B   7      12.703  92.853  62.505  1.00  0.23     0.163 HD
ATOM     74  O   TRP B   6      13.457  95.797  63.188  1.00  0.00    -0.271 OA
BRANCH  72  75
ATOM     75  CA  VAL B   7      14.413  93.240  63.689  1.00  5.65     0.189 C 
BRANCH  75  76
ATOM     76  CB  VAL B   7      14.360  91.781  64.182  1.00  1.15     0.010 C 
ATOM     77  CG1 VAL B   7      14.166  91.733  65.690  1.00  4.96     0.012 C 
ATOM     78  CG2 VAL B   7      13.255  91.013  63.471  1.00  9.83     0.012 C 
ENDBRANCH  75  76
BRANCH  75  79
ATOM     79  C   VAL B   7      15.689  93.447  62.878  1.00  4.44     0.197 C 
ATOM     80  O   VAL B   7      16.320  94.513  63.035  1.00  0.00    -0.646 OA
ATOM     81  OXT VAL B   7      16.045  92.544  62.094  1.00  0.00    -0.646 OA
ENDBRANCH  75  79
ENDBRANCH  72  75
ENDBRANCH  59  71
ENDBRANCH  57  59
ENDBRANCH  50  55
ENDBRANCH  48  50
ENDBRANCH   1  46
TORSDOF 26
ENDMDL
MODEL 7
REMARK VINA RESULT:      -5.6      2.870      7.764
REMARK  26 active torsions:
REMARK  status: ('A' for Active; 'I' for Inactive)
REMARK    1  A    between atoms: N_1  and  CA_2 
REMARK    2  A    between atoms: CA_2  and  CB_5 
REMARK    3  A    between atoms: CA_2  and  C_3 
REMARK       I    between atoms: C_3  and  N_20 
REMARK    4  A    between atoms: CB_5  and  CG_6 
REMARK    5  A    between atoms: CA_17  and  N_20 
REMARK    6  A    between atoms: CA_17  and  C_18 
REMARK       I    between atoms: C_18  and  N_35 
REMARK    7  A    between atoms: CA_22  and  CB_24 
REMARK    8  A    between atoms: CA_22  and  N_35 
REMARK    9  A    between atoms: CA_22  and  C_23 
REMARK       I    between atoms: C_23  and  N_44 
REMARK   10  A    between atoms: CB_24  and  CG_25 
REMARK   11  A    between atoms: CA_38  and  N_44 
REMARK   12  A    between atoms: CA_38  and  CB_40 
REMARK   13  A    between atoms: CA_38  and  C_39 
REMARK       I    between atoms: C_39  and  N_54 
REMARK   14  A    between atoms: CB_40  and  CG_41 
REMARK   15  A    between atoms: CG_41  and  CD_42 
REMARK   16  A    between atoms: CA_48  and  N_54 
REMARK   17  A    between atoms: CA_48  and  CB_50 
REMARK   18  A    between atoms: CA_48  and  C_49 
REMARK       I    between atoms: C_49  and  N_70 
REMARK   19  A    between atoms: CB_50  and  OG1_56 
REMARK   20  A    between atoms: CA_57  and  CB_59 
REMARK   21  A    between atoms: CA_57  and  N_70 
REMARK   22  A    between atoms: CA_57  and  C_58 
REMARK       I    between atoms: C_58  and  N_79 
REMARK   23  A    between atoms: CB_59  and  CG_60 
REMARK   24  A    between atoms: CA_73  and  N_79 
REMARK   25  A    between atoms: CA_73  and  CB_75 
REMARK   26  A    between atoms: CA_73  and  C_74 
ROOT
ATOM      1  CA  GLU B   4       6.593  92.473  61.011  1.00  0.00     0.177 C 
ENDROOT
BRANCH   1   2
ATOM      2  N   GLU B   4       6.969  91.092  60.713  1.00  0.00    -0.346 N 
ATOM      3  C   TRP B   3       6.206  90.318  59.947  1.00  0.00     0.241 C 
ATOM      4  O   TRP B   3       5.150  90.707  59.449  1.00  0.00    -0.271 OA
ATOM      5  H   GLU B   4       7.801  90.732  61.084  1.00  0.23     0.163 HD
BRANCH   3   6
ATOM      6  CA  TRP B   3       6.703  88.896  59.705  1.00  0.00     0.181 C 
BRANCH   6   7
ATOM      7  CB  TRP B   3       5.593  88.054  59.059  1.00  0.00     0.075 C 
BRANCH   7   8
ATOM      8  CG  TRP B   3       4.614  87.478  60.040  1.00  0.00    -0.028 A 
ATOM      9  CD1 TRP B   3       3.469  88.065  60.496  1.00  0.00     0.096 A 
ATOM     10  NE1 TRP B   3       2.836  87.235  61.392  1.00  0.00    -0.365 N 
ATOM     11  CE2 TRP B   3       3.573  86.089  61.531  1.00  0.00     0.042 A 
ATOM     12  HE1 TRP B   3       1.995  87.434  61.854  1.00  0.23     0.165 HD
ATOM     13  CZ2 TRP B   3       3.342  84.963  62.319  1.00  0.00     0.030 A 
ATOM     14  CD2 TRP B   3       4.701  86.207  60.696  1.00  0.00    -0.002 A 
ATOM     15  CH2 TRP B   3       4.259  83.950  62.260  1.00  0.00     0.002 A 
ATOM     16  CZ3 TRP B   3       5.391  84.039  61.440  1.00  0.00     0.001 A 
ATOM     17  CE3 TRP B   3       5.622  85.155  60.659  1.00  0.00     0.014 A 
ENDBRANCH   7   8
ENDBRANCH   6   7
BRANCH   6  18
ATOM     18  N   TRP B   3       7.170  88.284  60.946  1.00  0.00    -0.346 N 
ATOM     19  C   GLY B   2       6.641  88.604  62.124  1.00  0.00     0.236 C 
ATOM     20  O   GLY B   2       5.735  89.426  62.251  1.00  0.00    -0.272 OA
ATOM     21  H   TRP B   3       7.888  87.616  60.909  1.00  0.23     0.163 HD
BRANCH  19  22
ATOM     22  CA  GLY B   2       7.214  87.892  63.334  1.00  0.00     0.225 C 
BRANCH  22  23
ATOM     23  N   GLY B   2       6.986  88.621  64.569  1.00  0.00    -0.350 N 
ATOM     24  H   GLY B   2       6.086  88.940  64.788  1.00  0.23     0.163 HD
ATOM     25  C   TRP B   1       7.980  88.879  65.420  1.00  0.00     0.254 C 
ATOM     26  O   TRP B   1       9.144  88.498  65.207  1.00  0.00    -0.271 OA
BRANCH  25  27
ATOM     27  CA  TRP B   1       7.628  89.653  66.669  1.00  0.00     0.354 C 
BRANCH  27  28
ATOM     28  N   TRP B   1       8.815  90.262  67.260  1.00  0.00     0.312 N 
ATOM     29  H   TRP B   1       9.688  89.889  66.770  1.00  0.00     0.359 HD
ENDBRANCH  27  28
BRANCH  27  30
ATOM     30  CB  TRP B   1       6.601  90.767  66.325  1.00  0.00     0.089 C 
BRANCH  30  31
ATOM     31  CG  TRP B   1       5.192  90.534  66.877  1.00  0.00    -0.028 A 
ATOM     32  CD1 TRP B   1       4.862  90.345  68.235  1.00  0.00     0.096 A 
ATOM     33  NE1 TRP B   1       3.491  90.073  68.402  1.00  0.00    -0.365 N 
ATOM     34  HE1 TRP B   1       2.986  89.857  69.271  1.00  0.00     0.165 HD
ATOM     35  CE2 TRP B   1       2.987  90.096  67.110  1.00  0.00     0.042 A 
ATOM     36  CD2 TRP B   1       4.014  90.375  66.176  1.00  0.00    -0.002 A 
ATOM     37  CZ2 TRP B   1       1.667  89.871  66.663  1.00  0.00     0.030 A 
ATOM     38  CE3 TRP B   1       3.734  90.420  64.787  1.00  0.00     0.014 A 
ATOM     39  CZ3 TRP B   1       2.421  90.202  64.369  1.00  0.00     0.001 A 
ATOM     40  CH2 TRP B   1       1.401  89.934  65.292  1.00  0.00     0.002 A 
ENDBRANCH  30  31
ENDBRANCH  27  30
ENDBRANCH  25  27
ENDBRANCH  22  23
ENDBRANCH  19  22
ENDBRANCH   6  18
ENDBRANCH   3   6
ENDBRANCH   1   2
BRANCH   1  41
ATOM     41  CB  GLU B   4       5.073  92.635  60.975  1.00  0.00     0.045 C 
BRANCH  41  42
ATOM     42  CG  GLU B   4       4.620  93.958  60.381  1.00  0.00     0.116 C 
BRANCH  42  43
ATOM     43  CD  GLU B   4       5.448  94.376  59.181  1.00  0.00     0.172 C 
ATOM     44  OE1 GLU B   4       6.478  95.053  59.378  1.00  0.00    -0.648 OA
ATOM     45  OE2 GLU B   4       5.065  94.026  58.045  1.00  0.00    -0.648 OA
ENDBRANCH  42  43
ENDBRANCH  41  42
ENDBRANCH   1  41
BRANCH   1  46
ATOM     46  C   GLU B   4       7.124  92.898  62.376  1.00  0.00     0.241 C 
ATOM     47  O   GLU B   4       6.369  92.994  63.344  1.00  0.00    -0.271 OA
ATOM     48  N   THR B   5       8.427  93.156  62.444  1.00  7.70    -0.344 N 
ATOM     49  H   THR B   5       8.973  93.062  61.635  1.00  0.23     0.163 HD
BRANCH  48  50
ATOM     50  CA  THR B   5       9.068  93.576  63.687  1.00  7.88     0.205 C 
BRANCH  50  51
ATOM     51  CB  THR B   5       9.445  92.355  64.528  1.00  4.05     0.146 C 
ATOM     52  CG2 THR B   5      10.401  91.417  63.825  1.00  3.72     0.042 C 
BRANCH  51  53
ATOM     53  OG1 THR B   5      10.052  92.754  65.744  1.00  7.31    -0.393 OA
ATOM     54  HG1 THR B   5      10.786  93.342  65.558  1.00  0.23     0.210 HD
ENDBRANCH  51  53
ENDBRANCH  50  51
BRANCH  50  55
ATOM     55  C   THR B   5      10.310  94.411  63.395  1.00  7.05     0.243 C 
ATOM     56  O   THR B   5      10.961  94.912  64.311  1.00  6.06    -0.271 OA
ATOM     57  N   TRP B   6      10.636  94.553  62.115  1.00  0.00    -0.346 N 
ATOM     58  H   TRP B   6      10.080  94.129  61.429  1.00  0.23     0.163 HD
BRANCH  57  59
ATOM     59  CA  TRP B   6      11.803  95.324  61.706  1.00  0.00     0.181 C 
BRANCH  59  60
ATOM     60  CB  TRP B   6      11.443  96.806  61.589  1.00  0.00     0.075 C 
BRANCH  60  61
ATOM     61  CG  TRP B   6      11.992  97.444  60.350  1.00  0.00    -0.028 A 
ATOM     62  CD2 TRP B   6      11.580  98.690  59.774  1.00  0.00    -0.002 A 
ATOM     63  CE2 TRP B   6      12.368  98.899  58.626  1.00  0.00     0.042 A 
ATOM     64  CE3 TRP B   6      10.622  99.648  60.118  1.00  0.00     0.014 A 
ATOM     65  CZ2 TRP B   6      12.226 100.026  57.822  1.00  0.00     0.030 A 
ATOM     66  NE1 TRP B   6      13.218  97.829  58.509  1.00  0.00    -0.365 N 
ATOM     67  CH2 TRP B   6      11.280 100.948  58.181  1.00  0.00     0.002 A 
ATOM     68  CZ3 TRP B   6      10.483 100.767  59.317  1.00  0.00     0.001 A 
ATOM     69  CD1 TRP B   6      12.985  96.961  59.548  1.00  0.00     0.096 A 
ATOM     70  HE1 TRP B   6      13.883  97.705  57.800  1.00  0.23     0.165 HD
ENDBRANCH  60  61
ENDBRANCH  59  60
BRANCH  59  71
ATOM     71  C   TRP B   6      12.952  95.138  62.691  1.00  0.00     0.241 C 
ATOM     72  N   VAL B   7      13.276  93.882  62.982  1.00  6.11    -0.344 N 
ATOM     73  H   VAL B   7      12.777  93.151  62.561  1.00  0.23     0.163 HD
ATOM     74  O   TRP B   6      13.529  96.111  63.179  1.00  0.00    -0.271 OA
BRANCH  72  75
ATOM     75  CA  VAL B   7      14.352  93.563  63.911  1.00  5.65     0.189 C 
BRANCH  75  76
ATOM     76  CB  VAL B   7      14.350  92.066  64.276  1.00  1.15     0.010 C 
ATOM     77  CG1 VAL B   7      13.809  91.860  65.684  1.00  4.96     0.012 C 
ATOM     78  CG2 VAL B   7      13.539  91.268  63.265  1.00  9.83     0.012 C 
ENDBRANCH  75  76
BRANCH  75  79
ATOM     79  C   VAL B   7      15.712  93.932  63.326  1.00  4.44     0.197 C 
ATOM     80  O   VAL B   7      16.395  94.793  63.919  1.00  0.00    -0.646 OA
ATOM     81  OXT VAL B   7      16.082  93.358  62.281  1.00  0.00    -0.646 OA
ENDBRANCH  75  79
ENDBRANCH  72  75
ENDBRANCH  59  71
ENDBRANCH  57  59
ENDBRANCH  50  55
ENDBRANCH  48  50
ENDBRANCH   1  46
TORSDOF 26
ENDMDL
