MODEL 1
REMARK VINA RESULT:      -7.6      0.000      0.000
REMARK  30 active torsions:
REMARK  status: ('A' for Active; 'I' for Inactive)
REMARK    1  A    between atoms: N_1  and  CA_2 
REMARK    2  A    between atoms: CA_2  and  CB_5 
REMARK    3  A    between atoms: CA_2  and  C_3 
REMARK       I    between atoms: C_3  and  N_14 
REMARK    4  A    between atoms: CB_5  and  CG_6 
REMARK    5  A    between atoms: CG_6  and  CD_7 
REMARK    6  A    between atoms: CD_7  and  CE_8 
REMARK    7  A    between atoms: CE_8  and  NZ_9 
REMARK    8  A    between atoms: N_14  and  CA_15 
REMARK    9  A    between atoms: CA_15  and  CB_18 
REMARK   10  A    between atoms: CA_15  and  C_16 
REMARK       I    between atoms: C_16  and  N_22 
REMARK   11  A    between atoms: CB_18  and  SG_19 
REMARK   12  A    between atoms: N_22  and  CA_23 
REMARK   13  A    between atoms: CA_23  and  CB_26 
REMARK   14  A    between atoms: CA_23  and  C_24 
REMARK       I    between atoms: C_24  and  N_34 
REMARK   15  A    between atoms: CB_26  and  CG_27 
REMARK   16  A    between atoms: N_34  and  CA_35 
REMARK   17  A    between atoms: CA_35  and  CB_38 
REMARK   18  A    between atoms: CA_35  and  C_36 
REMARK       I    between atoms: C_36  and  N_52 
REMARK   19  A    between atoms: CB_38  and  CG_39 
REMARK   20  A    between atoms: CA_46  and  N_52 
REMARK   21  A    between atoms: CA_46  and  CB_48 
REMARK   22  A    between atoms: CA_46  and  C_47 
REMARK       I    between atoms: C_47  and  N_68 
REMARK   23  A    between atoms: CB_48  and  OG1_54 
REMARK   24  A    between atoms: CA_55  and  CB_57 
REMARK   25  A    between atoms: CA_55  and  N_68 
REMARK   26  A    between atoms: CA_55  and  C_56 
REMARK       I    between atoms: C_56  and  N_77 
REMARK   27  A    between atoms: CB_57  and  CG_58 
REMARK   28  A    between atoms: CA_71  and  N_77 
REMARK   29  A    between atoms: CA_71  and  CB_73 
REMARK   30  A    between atoms: CA_71  and  C_72 
ROOT
ATOM      1  CA  HIS B   4       8.473  92.952  63.857  1.00  0.00     0.182 C 
ENDROOT
BRANCH   1   2
ATOM      2  CB  HIS B   4       9.372  93.654  62.827  1.00  0.00     0.095 C 
BRANCH   2   3
ATOM      3  CG  HIS B   4      10.650  94.156  63.433  1.00  0.00     0.053 A 
ATOM      4  CD2 HIS B   4      11.644  94.772  62.686  1.00  0.00     0.116 A 
ATOM      5  NE2 HIS B   4      12.668  95.105  63.535  1.00  0.00    -0.359 N 
ATOM      6  CE1 HIS B   4      12.212  94.660  64.738  1.00  0.00     0.207 A 
ATOM      7  HE2 HIS B   4      13.558  95.573  63.310  1.00  0.00     0.166 HD
ATOM      8  ND1 HIS B   4      11.000  94.076  64.780  1.00  0.00    -0.247 NA
ENDBRANCH   2   3
ENDBRANCH   1   2
BRANCH   1   9
ATOM      9  C   HIS B   4       7.184  92.503  63.213  1.00  0.00     0.241 C 
ATOM     10  O   HIS B   4       6.821  91.328  63.234  1.00  0.00    -0.271 OA
ATOM     11  N   THR B   5       6.488  93.467  62.613  1.00  7.70    -0.344 N 
ATOM     12  H   THR B   5       6.836  94.384  62.626  1.00  0.23     0.163 HD
BRANCH  11  13
ATOM     13  CA  THR B   5       5.221  93.199  61.939  1.00  7.88     0.205 C 
BRANCH  13  14
ATOM     14  CB  THR B   5       4.636  94.495  61.374  1.00  4.05     0.146 C 
ATOM     15  CG2 THR B   5       3.442  94.268  60.472  1.00  3.72     0.042 C 
BRANCH  14  16
ATOM     16  OG1 THR B   5       4.224  95.356  62.421  1.00  7.31    -0.393 OA
ATOM     17  HG1 THR B   5       4.595  96.230  62.280  1.00  0.23     0.210 HD
ENDBRANCH  14  16
ENDBRANCH  13  14
BRANCH  13  18
ATOM     18  C   THR B   5       5.412  92.183  60.819  1.00  7.05     0.243 C 
ATOM     19  O   THR B   5       6.106  92.449  59.838  1.00  6.06    -0.271 OA
ATOM     20  N   TRP B   6       4.796  91.016  60.971  1.00  0.00    -0.346 N 
ATOM     21  H   TRP B   6       4.257  90.860  61.775  1.00  0.23     0.163 HD
BRANCH  20  22
ATOM     22  CA  TRP B   6       4.903  89.959  59.973  1.00  0.00     0.181 C 
BRANCH  22  23
ATOM     23  CB  TRP B   6       6.152  89.115  60.230  1.00  0.00     0.075 C 
BRANCH  23  24
ATOM     24  CG  TRP B   6       6.522  88.250  59.065  1.00  0.00    -0.028 A 
ATOM     25  CD2 TRP B   6       6.727  86.832  59.082  1.00  0.00    -0.002 A 
ATOM     26  CE3 TRP B   6       6.671  85.856  60.080  1.00  0.00     0.014 A 
ATOM     27  CE2 TRP B   6       7.051  86.442  57.768  1.00  0.00     0.042 A 
ATOM     28  CZ3 TRP B   6       6.933  84.540  59.741  1.00  0.00     0.001 A 
ATOM     29  CH2 TRP B   6       7.253  84.182  58.425  1.00  0.00     0.002 A 
ATOM     30  CZ2 TRP B   6       7.314  85.118  57.429  1.00  0.00     0.030 A 
ATOM     31  NE1 TRP B   6       7.042  87.570  56.989  1.00  0.00    -0.365 N 
ATOM     32  CD1 TRP B   6       6.723  88.651  57.776  1.00  0.00     0.096 A 
ATOM     33  HE1 TRP B   6       7.231  87.601  56.028  1.00  0.23     0.165 HD
ENDBRANCH  23  24
ENDBRANCH  22  23
BRANCH  22  34
ATOM     34  C   TRP B   6       3.660  89.075  59.980  1.00  0.00     0.241 C 
ATOM     35  N   VAL B   7       3.674  88.053  60.829  1.00  6.11    -0.344 N 
ATOM     36  H   VAL B   7       4.460  87.916  61.398  1.00  0.23     0.163 HD
ATOM     37  O   TRP B   6       2.713  89.313  59.230  1.00  0.00    -0.271 OA
BRANCH  35  38
ATOM     38  CA  VAL B   7       2.552  87.128  60.934  1.00  5.65     0.189 C 
BRANCH  38  39
ATOM     39  CB  VAL B   7       2.925  85.736  60.388  1.00  1.15     0.010 C 
ATOM     40  CG1 VAL B   7       1.859  84.714  60.760  1.00  4.96     0.012 C 
ATOM     41  CG2 VAL B   7       3.123  85.784  58.881  1.00  9.83     0.012 C 
ENDBRANCH  38  39
BRANCH  38  42
ATOM     42  C   VAL B   7       2.087  86.989  62.380  1.00  4.44     0.197 C 
ATOM     43  O   VAL B   7       0.870  87.131  62.624  1.00  0.00    -0.646 OA
ATOM     44  OXT VAL B   7       2.941  86.741  63.256  1.00  0.00    -0.646 OA
ENDBRANCH  38  42
ENDBRANCH  35  38
ENDBRANCH  22  34
ENDBRANCH  20  22
ENDBRANCH  13  18
ENDBRANCH  11  13
ENDBRANCH   1   9
BRANCH   1  45
ATOM     45  N   HIS B   4       9.233  91.810  64.357  1.00  0.00    -0.346 N 
ATOM     46  C   PHE B   3       9.170  91.475  65.678  1.00  0.00     0.241 C 
ATOM     47  O   PHE B   3       8.477  92.120  66.482  1.00  0.00    -0.271 OA
ATOM     48  H   HIS B   4       9.781  91.292  63.753  1.00  0.00     0.163 HD
BRANCH  46  49
ATOM     49  CA  PHE B   3       9.953  90.270  66.141  1.00  0.00     0.180 C 
BRANCH  49  50
ATOM     50  N   PHE B   3       9.059  89.183  66.529  1.00  0.00    -0.346 N 
ATOM     51  H   PHE B   3       8.485  88.772  65.854  1.00  0.00     0.163 HD
ATOM     52  C   CYS B   2       9.006  88.733  67.797  1.00  0.00     0.241 C 
ATOM     53  O   CYS B   2       9.705  89.202  68.691  1.00  0.00    -0.271 OA
BRANCH  52  54
ATOM     54  CA  CYS B   2       8.003  87.635  68.065  1.00  0.00     0.185 C 
BRANCH  54  55
ATOM     55  CB  CYS B   2       8.434  86.284  67.463  1.00  0.00     0.105 C 
BRANCH  55  56
ATOM     56  SG  CYS B   2       8.171  84.943  68.645  1.00  0.00    -0.180 SA
ATOM     57  HG  CYS B   2       9.134  85.290  69.496  1.00  0.00     0.101 HD
ENDBRANCH  55  56
ENDBRANCH  54  55
BRANCH  54  58
ATOM     58  N   CYS B   2       6.690  87.985  67.530  1.00  0.00    -0.345 N 
ATOM     59  H   CYS B   2       6.609  88.238  66.584  1.00  0.00     0.163 HD
ATOM     60  C   LYS B   1       5.596  87.969  68.297  1.00  0.00     0.254 C 
ATOM     61  O   LYS B   1       5.627  87.609  69.479  1.00  0.00    -0.271 OA
BRANCH  60  62
ATOM     62  CA  LYS B   1       4.303  88.369  67.625  1.00  0.00     0.350 C 
BRANCH  62  63
ATOM     63  N   LYS B   1       3.424  87.217  67.453  1.00  0.00     0.312 N 
ATOM     64  H   LYS B   1       4.005  86.321  67.451  1.00  0.00     0.359 HD
ENDBRANCH  62  63
BRANCH  62  65
ATOM     65  CB  LYS B   1       3.567  89.464  68.446  1.00  0.00     0.048 C 
BRANCH  65  66
ATOM     66  CG  LYS B   1       3.149  90.691  67.599  1.00  0.00     0.004 C 
BRANCH  66  67
ATOM     67  CD  LYS B   1       3.280  90.504  66.085  1.00  0.00     0.027 C 
BRANCH  67  68
ATOM     68  CE  LYS B   1       4.190  91.602  65.516  1.00  0.00     0.229 C 
BRANCH  68  69
ATOM     69  NZ  LYS B   1       5.506  91.538  66.176  1.00  0.00    -0.079 N 
ATOM     70  HZ3 LYS B   1       5.325  91.523  67.170  1.00  0.00     0.274 HD
ATOM     71  HZ2 LYS B   1       6.090  92.342  65.924  1.00  0.00     0.274 HD
ATOM     72  HZ1 LYS B   1       6.023  90.703  65.875  1.00  0.00     0.274 HD
ENDBRANCH  68  69
ENDBRANCH  67  68
ENDBRANCH  66  67
ENDBRANCH  65  66
ENDBRANCH  62  65
ENDBRANCH  60  62
ENDBRANCH  54  58
ENDBRANCH  52  54
ENDBRANCH  49  50
BRANCH  49  73
ATOM     73  CB  PHE B   3      10.890  89.805  64.986  1.00  0.00     0.073 C 
BRANCH  73  74
ATOM     74  CG  PHE B   3      12.246  90.521  64.874  1.00  0.00    -0.056 A 
ATOM     75  CD2 PHE B   3      12.794  90.822  63.625  1.00  0.00     0.007 A 
ATOM     76  CE2 PHE B   3      13.989  91.533  63.539  1.00  0.00     0.001 A 
ATOM     77  CZ  PHE B   3      14.636  91.950  64.701  1.00  0.00     0.000 A 
ATOM     78  CE1 PHE B   3      14.094  91.653  65.949  1.00  0.00     0.001 A 
ATOM     79  CD1 PHE B   3      12.908  90.933  66.036  1.00  0.00     0.007 A 
ENDBRANCH  73  74
ENDBRANCH  49  73
ENDBRANCH  46  49
ENDBRANCH   1  45
TORSDOF 30
ENDMDL
MODEL 2
REMARK VINA RESULT:      -7.4      1.869      3.074
REMARK  30 active torsions:
REMARK  status: ('A' for Active; 'I' for Inactive)
REMARK    1  A    between atoms: N_1  and  CA_2 
REMARK    2  A    between atoms: CA_2  and  CB_5 
REMARK    3  A    between atoms: CA_2  and  C_3 
REMARK       I    between atoms: C_3  and  N_14 
REMARK    4  A    between atoms: CB_5  and  CG_6 
REMARK    5  A    between atoms: CG_6  and  CD_7 
REMARK    6  A    between atoms: CD_7  and  CE_8 
REMARK    7  A    between atoms: CE_8  and  NZ_9 
REMARK    8  A    between atoms: N_14  and  CA_15 
REMARK    9  A    between atoms: CA_15  and  CB_18 
REMARK   10  A    between atoms: CA_15  and  C_16 
REMARK       I    between atoms: C_16  and  N_22 
REMARK   11  A    between atoms: CB_18  and  SG_19 
REMARK   12  A    between atoms: N_22  and  CA_23 
REMARK   13  A    between atoms: CA_23  and  CB_26 
REMARK   14  A    between atoms: CA_23  and  C_24 
REMARK       I    between atoms: C_24  and  N_34 
REMARK   15  A    between atoms: CB_26  and  CG_27 
REMARK   16  A    between atoms: N_34  and  CA_35 
REMARK   17  A    between atoms: CA_35  and  CB_38 
REMARK   18  A    between atoms: CA_35  and  C_36 
REMARK       I    between atoms: C_36  and  N_52 
REMARK   19  A    between atoms: CB_38  and  CG_39 
REMARK   20  A    between atoms: CA_46  and  N_52 
REMARK   21  A    between atoms: CA_46  and  CB_48 
REMARK   22  A    between atoms: CA_46  and  C_47 
REMARK       I    between atoms: C_47  and  N_68 
REMARK   23  A    between atoms: CB_48  and  OG1_54 
REMARK   24  A    between atoms: CA_55  and  CB_57 
REMARK   25  A    between atoms: CA_55  and  N_68 
REMARK   26  A    between atoms: CA_55  and  C_56 
REMARK       I    between atoms: C_56  and  N_77 
REMARK   27  A    between atoms: CB_57  and  CG_58 
REMARK   28  A    between atoms: CA_71  and  N_77 
REMARK   29  A    between atoms: CA_71  and  CB_73 
REMARK   30  A    between atoms: CA_71  and  C_72 
ROOT
ATOM      1  CA  HIS B   4       8.662  93.336  63.472  1.00  0.00     0.182 C 
ENDROOT
BRANCH   1   2
ATOM      2  CB  HIS B   4       9.859  93.727  62.591  1.00  0.00     0.095 C 
BRANCH   2   3
ATOM      3  CG  HIS B   4      11.030  94.204  63.400  1.00  0.00     0.053 A 
ATOM      4  CD2 HIS B   4      12.099  94.890  62.841  1.00  0.00     0.116 A 
ATOM      5  NE2 HIS B   4      12.990  95.176  63.842  1.00  0.00    -0.359 N 
ATOM      6  CE1 HIS B   4      12.389  94.636  64.937  1.00  0.00     0.207 A 
ATOM      7  HE2 HIS B   4      13.889  95.674  63.774  1.00  0.00     0.166 HD
ATOM      8  ND1 HIS B   4      11.199  94.030  64.772  1.00  0.00    -0.247 NA
ENDBRANCH   2   3
ENDBRANCH   1   2
BRANCH   1   9
ATOM      9  C   HIS B   4       7.403  93.249  62.642  1.00  0.00     0.241 C 
ATOM     10  O   HIS B   4       7.420  93.386  61.421  1.00  0.00    -0.271 OA
ATOM     11  N   THR B   5       6.286  93.031  63.334  1.00  7.70    -0.344 N 
ATOM     12  H   THR B   5       6.341  92.937  64.308  1.00  0.23     0.163 HD
BRANCH  11  13
ATOM     13  CA  THR B   5       4.984  92.924  62.683  1.00  7.88     0.205 C 
BRANCH  13  14
ATOM     14  CB  THR B   5       4.833  94.011  61.617  1.00  4.05     0.146 C 
ATOM     15  CG2 THR B   5       4.093  93.539  60.384  1.00  3.72     0.042 C 
BRANCH  14  16
ATOM     16  OG1 THR B   5       4.134  95.128  62.136  1.00  7.31    -0.393 OA
ATOM     17  HG1 THR B   5       4.649  95.924  61.989  1.00  0.23     0.210 HD
ENDBRANCH  14  16
ENDBRANCH  13  14
BRANCH  13  18
ATOM     18  C   THR B   5       4.812  91.547  62.050  1.00  7.05     0.243 C 
ATOM     19  O   THR B   5       3.720  90.980  62.064  1.00  6.06    -0.271 OA
ATOM     20  N   TRP B   6       5.895  91.015  61.493  1.00  0.00    -0.346 N 
ATOM     21  H   TRP B   6       6.737  91.516  61.512  1.00  0.23     0.163 HD
BRANCH  20  22
ATOM     22  CA  TRP B   6       5.860  89.707  60.852  1.00  0.00     0.181 C 
BRANCH  22  23
ATOM     23  CB  TRP B   6       7.234  89.365  60.276  1.00  0.00     0.075 C 
BRANCH  23  24
ATOM     24  CG  TRP B   6       7.155  88.545  59.025  1.00  0.00    -0.028 A 
ATOM     25  CD2 TRP B   6       7.134  87.115  58.938  1.00  0.00    -0.002 A 
ATOM     26  CE3 TRP B   6       7.181  86.085  59.881  1.00  0.00     0.014 A 
ATOM     27  CE2 TRP B   6       7.047  86.782  57.573  1.00  0.00     0.042 A 
ATOM     28  CZ3 TRP B   6       7.139  84.775  59.439  1.00  0.00     0.001 A 
ATOM     29  CH2 TRP B   6       7.053  84.474  58.075  1.00  0.00     0.002 A 
ATOM     30  CZ2 TRP B   6       7.004  85.462  57.131  1.00  0.00     0.030 A 
ATOM     31  NE1 TRP B   6       7.016  87.955  56.863  1.00  0.00    -0.365 N 
ATOM     32  CD1 TRP B   6       7.082  89.008  57.743  1.00  0.00     0.096 A 
ATOM     33  HE1 TRP B   6       6.957  88.030  55.888  1.00  0.23     0.165 HD
ENDBRANCH  23  24
ENDBRANCH  22  23
BRANCH  22  34
ATOM     34  C   TRP B   6       5.420  88.629  61.838  1.00  0.00     0.241 C 
ATOM     35  N   VAL B   7       4.371  87.897  61.473  1.00  6.11    -0.344 N 
ATOM     36  H   VAL B   7       3.940  88.077  60.612  1.00  0.23     0.163 HD
ATOM     37  O   TRP B   6       6.014  88.468  62.904  1.00  0.00    -0.271 OA
BRANCH  35  38
ATOM     38  CA  VAL B   7       3.845  86.836  62.323  1.00  5.65     0.189 C 
BRANCH  38  39
ATOM     39  CB  VAL B   7       2.416  87.162  62.801  1.00  1.15     0.010 C 
ATOM     40  CG1 VAL B   7       2.437  87.673  64.235  1.00  4.96     0.012 C 
ATOM     41  CG2 VAL B   7       1.758  88.175  61.877  1.00  9.83     0.012 C 
ENDBRANCH  38  39
BRANCH  38  42
ATOM     42  C   VAL B   7       3.833  85.498  61.589  1.00  4.44     0.197 C 
ATOM     43  O   VAL B   7       3.263  85.440  60.480  1.00  0.00    -0.646 OA
ATOM     44  OXT VAL B   7       4.390  84.522  62.130  1.00  0.00    -0.646 OA
ENDBRANCH  38  42
ENDBRANCH  35  38
ENDBRANCH  22  34
ENDBRANCH  20  22
ENDBRANCH  13  18
ENDBRANCH  11  13
ENDBRANCH   1   9
BRANCH   1  45
ATOM     45  N   HIS B   4       8.990  92.040  64.061  1.00  0.00    -0.346 N 
ATOM     46  C   PHE B   3       8.866  91.854  65.407  1.00  0.00     0.241 C 
ATOM     47  O   PHE B   3       8.478  92.763  66.159  1.00  0.00    -0.271 OA
ATOM     48  H   HIS B   4       9.296  91.317  63.498  1.00  0.00     0.163 HD
BRANCH  46  49
ATOM     49  CA  PHE B   3       9.192  90.489  65.965  1.00  0.00     0.180 C 
BRANCH  49  50
ATOM     50  N   PHE B   3       7.989  89.671  66.081  1.00  0.00    -0.346 N 
ATOM     51  H   PHE B   3       7.727  89.097  65.334  1.00  0.00     0.163 HD
ATOM     52  C   CYS B   2       7.231  89.687  67.193  1.00  0.00     0.241 C 
ATOM     53  O   CYS B   2       7.507  90.380  68.168  1.00  0.00    -0.271 OA
BRANCH  52  54
ATOM     54  CA  CYS B   2       5.990  88.825  67.157  1.00  0.00     0.185 C 
BRANCH  54  55
ATOM     55  CB  CYS B   2       4.695  89.653  67.260  1.00  0.00     0.105 C 
BRANCH  55  56
ATOM     56  SG  CYS B   2       4.398  90.571  65.731  1.00  0.00    -0.180 SA
ATOM     57  HG  CYS B   2       4.137  91.746  66.299  1.00  0.00     0.101 HD
ENDBRANCH  55  56
ENDBRANCH  54  55
BRANCH  54  58
ATOM     58  N   CYS B   2       6.002  87.846  68.241  1.00  0.00    -0.345 N 
ATOM     59  H   CYS B   2       5.304  87.886  68.932  1.00  0.00     0.163 HD
ATOM     60  C   LYS B   1       6.939  86.897  68.315  1.00  0.00     0.254 C 
ATOM     61  O   LYS B   1       7.810  86.765  67.449  1.00  0.00    -0.271 OA
BRANCH  60  62
ATOM     62  CA  LYS B   1       6.849  85.960  69.497  1.00  0.00     0.350 C 
BRANCH  62  63
ATOM     63  N   LYS B   1       5.643  85.139  69.422  1.00  0.00     0.312 N 
ATOM     64  H   LYS B   1       4.933  85.482  70.142  1.00  0.00     0.359 HD
ENDBRANCH  62  63
BRANCH  62  65
ATOM     65  CB  LYS B   1       8.097  85.039  69.571  1.00  0.00     0.048 C 
BRANCH  65  66
ATOM     66  CG  LYS B   1       9.026  85.356  70.770  1.00  0.00     0.004 C 
BRANCH  66  67
ATOM     67  CD  LYS B   1      10.379  85.966  70.393  1.00  0.00     0.027 C 
BRANCH  67  68
ATOM     68  CE  LYS B   1      10.191  87.455  70.072  1.00  0.00     0.229 C 
BRANCH  68  69
ATOM     69  NZ  LYS B   1      10.488  87.691  68.648  1.00  0.00    -0.079 N 
ATOM     70  HZ3 LYS B   1      11.413  87.319  68.486  1.00  0.00     0.274 HD
ATOM     71  HZ2 LYS B   1      10.451  88.689  68.419  1.00  0.00     0.274 HD
ATOM     72  HZ1 LYS B   1       9.788  87.234  68.051  1.00  0.00     0.274 HD
ENDBRANCH  68  69
ENDBRANCH  67  68
ENDBRANCH  66  67
ENDBRANCH  65  66
ENDBRANCH  62  65
ENDBRANCH  60  62
ENDBRANCH  54  58
ENDBRANCH  52  54
ENDBRANCH  49  50
BRANCH  49  73
ATOM     73  CB  PHE B   3      10.223  89.794  65.025  1.00  0.00     0.073 C 
BRANCH  73  74
ATOM     74  CG  PHE B   3      11.653  90.359  65.041  1.00  0.00    -0.056 A 
ATOM     75  CD2 PHE B   3      12.339  90.601  63.849  1.00  0.00     0.007 A 
ATOM     76  CE2 PHE B   3      13.606  91.178  63.876  1.00  0.00     0.001 A 
ATOM     77  CZ  PHE B   3      14.189  91.519  65.095  1.00  0.00     0.000 A 
ATOM     78  CE1 PHE B   3      13.510  91.279  66.288  1.00  0.00     0.001 A 
ATOM     79  CD1 PHE B   3      12.250  90.693  66.261  1.00  0.00     0.007 A 
ENDBRANCH  73  74
ENDBRANCH  49  73
ENDBRANCH  46  49
ENDBRANCH   1  45
TORSDOF 30
ENDMDL
MODEL 3
REMARK VINA RESULT:      -6.1      2.015      4.210
REMARK  30 active torsions:
REMARK  status: ('A' for Active; 'I' for Inactive)
REMARK    1  A    between atoms: N_1  and  CA_2 
REMARK    2  A    between atoms: CA_2  and  CB_5 
REMARK    3  A    between atoms: CA_2  and  C_3 
REMARK       I    between atoms: C_3  and  N_14 
REMARK    4  A    between atoms: CB_5  and  CG_6 
REMARK    5  A    between atoms: CG_6  and  CD_7 
REMARK    6  A    between atoms: CD_7  and  CE_8 
REMARK    7  A    between atoms: CE_8  and  NZ_9 
REMARK    8  A    between atoms: N_14  and  CA_15 
REMARK    9  A    between atoms: CA_15  and  CB_18 
REMARK   10  A    between atoms: CA_15  and  C_16 
REMARK       I    between atoms: C_16  and  N_22 
REMARK   11  A    between atoms: CB_18  and  SG_19 
REMARK   12  A    between atoms: N_22  and  CA_23 
REMARK   13  A    between atoms: CA_23  and  CB_26 
REMARK   14  A    between atoms: CA_23  and  C_24 
REMARK       I    between atoms: C_24  and  N_34 
REMARK   15  A    between atoms: CB_26  and  CG_27 
REMARK   16  A    between atoms: N_34  and  CA_35 
REMARK   17  A    between atoms: CA_35  and  CB_38 
REMARK   18  A    between atoms: CA_35  and  C_36 
REMARK       I    between atoms: C_36  and  N_52 
REMARK   19  A    between atoms: CB_38  and  CG_39 
REMARK   20  A    between atoms: CA_46  and  N_52 
REMARK   21  A    between atoms: CA_46  and  CB_48 
REMARK   22  A    between atoms: CA_46  and  C_47 
REMARK       I    between atoms: C_47  and  N_68 
REMARK   23  A    between atoms: CB_48  and  OG1_54 
REMARK   24  A    between atoms: CA_55  and  CB_57 
REMARK   25  A    between atoms: CA_55  and  N_68 
REMARK   26  A    between atoms: CA_55  and  C_56 
REMARK       I    between atoms: C_56  and  N_77 
REMARK   27  A    between atoms: CB_57  and  CG_58 
REMARK   28  A    between atoms: CA_71  and  N_77 
REMARK   29  A    between atoms: CA_71  and  CB_73 
REMARK   30  A    between atoms: CA_71  and  C_72 
ROOT
ATOM      1  CA  HIS B   4       8.993  93.568  63.242  1.00  0.00     0.182 C 
ENDROOT
BRANCH   1   2
ATOM      2  CB  HIS B   4      10.095  94.270  62.432  1.00  0.00     0.095 C 
BRANCH   2   3
ATOM      3  CG  HIS B   4      11.299  94.592  63.268  1.00  0.00     0.053 A 
ATOM      4  CD2 HIS B   4      12.470  95.109  62.730  1.00  0.00     0.116 A 
ATOM      5  NE2 HIS B   4      13.365  95.286  63.753  1.00  0.00    -0.359 N 
ATOM      6  CE1 HIS B   4      12.663  94.857  64.837  1.00  0.00     0.207 A 
ATOM      7  HE2 HIS B   4      14.327  95.650  63.704  1.00  0.00     0.166 HD
ATOM      8  ND1 HIS B   4      11.404  94.423  64.647  1.00  0.00    -0.247 NA
ENDBRANCH   2   3
ENDBRANCH   1   2
BRANCH   1   9
ATOM      9  C   HIS B   4       7.799  93.276  62.365  1.00  0.00     0.241 C 
ATOM     10  O   HIS B   4       7.864  93.335  61.139  1.00  0.00    -0.271 OA
ATOM     11  N   THR B   5       6.681  92.969  63.020  1.00  7.70    -0.344 N 
ATOM     12  H   THR B   5       6.694  92.945  64.000  1.00  0.23     0.163 HD
BRANCH  11  13
ATOM     13  CA  THR B   5       5.437  92.662  62.320  1.00  7.88     0.205 C 
BRANCH  13  14
ATOM     14  CB  THR B   5       5.392  93.389  60.975  1.00  4.05     0.146 C 
ATOM     15  CG2 THR B   5       4.522  92.695  59.949  1.00  3.72     0.042 C 
BRANCH  14  16
ATOM     16  OG1 THR B   5       4.898  94.707  61.134  1.00  7.31    -0.393 OA
ATOM     17  HG1 THR B   5       4.668  94.853  62.054  1.00  0.23     0.210 HD
ENDBRANCH  14  16
ENDBRANCH  13  14
BRANCH  13  18
ATOM     18  C   THR B   5       5.299  91.158  62.103  1.00  7.05     0.243 C 
ATOM     19  O   THR B   5       6.294  90.449  61.956  1.00  6.06    -0.271 OA
ATOM     20  N   TRP B   6       4.061  90.677  62.088  1.00  0.00    -0.346 N 
ATOM     21  H   TRP B   6       3.307  91.292  62.213  1.00  0.23     0.163 HD
BRANCH  20  22
ATOM     22  CA  TRP B   6       3.795  89.258  61.894  1.00  0.00     0.181 C 
BRANCH  22  23
ATOM     23  CB  TRP B   6       2.307  88.967  62.097  1.00  0.00     0.075 C 
BRANCH  23  24
ATOM     24  CG  TRP B   6       2.058  87.698  62.853  1.00  0.00    -0.028 A 
ATOM     25  CD2 TRP B   6       1.939  86.381  62.301  1.00  0.00    -0.002 A 
ATOM     26  CE3 TRP B   6       1.997  85.864  61.004  1.00  0.00     0.014 A 
ATOM     27  CE2 TRP B   6       1.716  85.498  63.375  1.00  0.00     0.042 A 
ATOM     28  CZ3 TRP B   6       1.835  84.502  60.822  1.00  0.00     0.001 A 
ATOM     29  CH2 TRP B   6       1.615  83.648  61.909  1.00  0.00     0.002 A 
ATOM     30  CZ2 TRP B   6       1.554  84.128  63.189  1.00  0.00     0.030 A 
ATOM     31  NE1 TRP B   6       1.701  86.243  64.525  1.00  0.00    -0.365 N 
ATOM     32  CD1 TRP B   6       1.908  87.563  64.203  1.00  0.00     0.096 A 
ATOM     33  HE1 TRP B   6       1.566  85.892  65.431  1.00  0.23     0.165 HD
ENDBRANCH  23  24
ENDBRANCH  22  23
BRANCH  22  34
ATOM     34  C   TRP B   6       4.235  88.806  60.506  1.00  0.00     0.241 C 
ATOM     35  N   VAL B   7       5.275  87.978  60.463  1.00  6.11    -0.344 N 
ATOM     36  H   VAL B   7       5.700  87.702  61.301  1.00  0.23     0.163 HD
ATOM     37  O   TRP B   6       3.648  89.201  59.498  1.00  0.00    -0.271 OA
BRANCH  35  38
ATOM     38  CA  VAL B   7       5.799  87.472  59.201  1.00  5.65     0.189 C 
BRANCH  38  39
ATOM     39  CB  VAL B   7       7.281  87.856  59.020  1.00  1.15     0.010 C 
ATOM     40  CG1 VAL B   7       7.403  89.253  58.430  1.00  4.96     0.012 C 
ATOM     41  CG2 VAL B   7       8.026  87.762  60.343  1.00  9.83     0.012 C 
ENDBRANCH  38  39
BRANCH  38  42
ATOM     42  C   VAL B   7       5.663  85.955  59.116  1.00  4.44     0.197 C 
ATOM     43  O   VAL B   7       5.842  85.409  58.007  1.00  0.00    -0.646 OA
ATOM     44  OXT VAL B   7       5.377  85.327  60.155  1.00  0.00    -0.646 OA
ENDBRANCH  38  42
ENDBRANCH  35  38
ENDBRANCH  22  34
ENDBRANCH  20  22
ENDBRANCH  13  18
ENDBRANCH  11  13
ENDBRANCH   1   9
BRANCH   1  45
ATOM     45  N   HIS B   4       9.582  92.333  63.753  1.00  0.00    -0.346 N 
ATOM     46  C   PHE B   3       9.276  91.904  65.012  1.00  0.00     0.241 C 
ATOM     47  O   PHE B   3       8.503  92.538  65.748  1.00  0.00    -0.271 OA
ATOM     48  H   HIS B   4      10.187  91.822  63.201  1.00  0.00     0.163 HD
BRANCH  46  49
ATOM     49  CA  PHE B   3       9.889  90.607  65.485  1.00  0.00     0.180 C 
BRANCH  49  50
ATOM     50  N   PHE B   3       8.863  89.592  65.702  1.00  0.00    -0.346 N 
ATOM     51  H   PHE B   3       8.389  89.220  64.932  1.00  0.00     0.163 HD
ATOM     52  C   CYS B   2       8.553  89.156  66.937  1.00  0.00     0.241 C 
ATOM     53  O   CYS B   2       9.115  89.579  67.944  1.00  0.00    -0.271 OA
BRANCH  52  54
ATOM     54  CA  CYS B   2       7.440  88.137  67.017  1.00  0.00     0.185 C 
BRANCH  54  55
ATOM     55  CB  CYS B   2       6.052  88.791  67.153  1.00  0.00     0.105 C 
BRANCH  55  56
ATOM     56  SG  CYS B   2       5.608  88.995  68.893  1.00  0.00    -0.180 SA
ATOM     57  HG  CYS B   2       4.325  89.288  68.697  1.00  0.00     0.101 HD
ENDBRANCH  55  56
ENDBRANCH  54  55
BRANCH  54  58
ATOM     58  N   CYS B   2       7.640  87.233  68.146  1.00  0.00    -0.345 N 
ATOM     59  H   CYS B   2       7.236  87.453  69.015  1.00  0.00     0.163 HD
ATOM     60  C   LYS B   1       8.358  86.113  68.026  1.00  0.00     0.254 C 
ATOM     61  O   LYS B   1       8.845  85.757  66.947  1.00  0.00    -0.271 OA
BRANCH  60  62
ATOM     62  CA  LYS B   1       8.503  85.275  69.275  1.00  0.00     0.350 C 
BRANCH  62  63
ATOM     63  N   LYS B   1       8.199  86.058  70.468  1.00  0.00     0.312 N 
ATOM     64  H   LYS B   1       8.854  85.773  71.260  1.00  0.00     0.359 HD
ENDBRANCH  62  63
BRANCH  62  65
ATOM     65  CB  LYS B   1       7.573  84.032  69.220  1.00  0.00     0.048 C 
BRANCH  65  66
ATOM     66  CG  LYS B   1       6.574  83.958  70.402  1.00  0.00     0.004 C 
BRANCH  66  67
ATOM     67  CD  LYS B   1       5.098  83.917  69.996  1.00  0.00     0.027 C 
BRANCH  67  68
ATOM     68  CE  LYS B   1       4.575  85.352  69.843  1.00  0.00     0.229 C 
BRANCH  68  69
ATOM     69  NZ  LYS B   1       4.735  86.070  71.120  1.00  0.00    -0.079 N 
ATOM     70  HZ3 LYS B   1       4.641  85.377  71.849  1.00  0.00     0.274 HD
ATOM     71  HZ2 LYS B   1       4.030  86.807  71.224  1.00  0.00     0.274 HD
ATOM     72  HZ1 LYS B   1       5.647  86.539  71.160  1.00  0.00     0.274 HD
ENDBRANCH  68  69
ENDBRANCH  67  68
ENDBRANCH  66  67
ENDBRANCH  65  66
ENDBRANCH  62  65
ENDBRANCH  60  62
ENDBRANCH  54  58
ENDBRANCH  52  54
ENDBRANCH  49  50
BRANCH  49  73
ATOM     73  CB  PHE B   3      10.911  90.115  64.417  1.00  0.00     0.073 C 
BRANCH  73  74
ATOM     74  CG  PHE B   3      12.321  90.725  64.485  1.00  0.00    -0.056 A 
ATOM     75  CD2 PHE B   3      13.004  91.081  63.320  1.00  0.00     0.007 A 
ATOM     76  CE2 PHE B   3      14.250  91.697  63.400  1.00  0.00     0.001 A 
ATOM     77  CZ  PHE B   3      14.816  91.964  64.646  1.00  0.00     0.000 A 
ATOM     78  CE1 PHE B   3      14.140  91.611  65.812  1.00  0.00     0.001 A 
ATOM     79  CD1 PHE B   3      12.901  90.986  65.732  1.00  0.00     0.007 A 
ENDBRANCH  73  74
ENDBRANCH  49  73
ENDBRANCH  46  49
ENDBRANCH   1  45
TORSDOF 30
ENDMDL
MODEL 4
REMARK VINA RESULT:      -5.8      2.437      5.815
REMARK  30 active torsions:
REMARK  status: ('A' for Active; 'I' for Inactive)
REMARK    1  A    between atoms: N_1  and  CA_2 
REMARK    2  A    between atoms: CA_2  and  CB_5 
REMARK    3  A    between atoms: CA_2  and  C_3 
REMARK       I    between atoms: C_3  and  N_14 
REMARK    4  A    between atoms: CB_5  and  CG_6 
REMARK    5  A    between atoms: CG_6  and  CD_7 
REMARK    6  A    between atoms: CD_7  and  CE_8 
REMARK    7  A    between atoms: CE_8  and  NZ_9 
REMARK    8  A    between atoms: N_14  and  CA_15 
REMARK    9  A    between atoms: CA_15  and  CB_18 
REMARK   10  A    between atoms: CA_15  and  C_16 
REMARK       I    between atoms: C_16  and  N_22 
REMARK   11  A    between atoms: CB_18  and  SG_19 
REMARK   12  A    between atoms: N_22  and  CA_23 
REMARK   13  A    between atoms: CA_23  and  CB_26 
REMARK   14  A    between atoms: CA_23  and  C_24 
REMARK       I    between atoms: C_24  and  N_34 
REMARK   15  A    between atoms: CB_26  and  CG_27 
REMARK   16  A    between atoms: N_34  and  CA_35 
REMARK   17  A    between atoms: CA_35  and  CB_38 
REMARK   18  A    between atoms: CA_35  and  C_36 
REMARK       I    between atoms: C_36  and  N_52 
REMARK   19  A    between atoms: CB_38  and  CG_39 
REMARK   20  A    between atoms: CA_46  and  N_52 
REMARK   21  A    between atoms: CA_46  and  CB_48 
REMARK   22  A    between atoms: CA_46  and  C_47 
REMARK       I    between atoms: C_47  and  N_68 
REMARK   23  A    between atoms: CB_48  and  OG1_54 
REMARK   24  A    between atoms: CA_55  and  CB_57 
REMARK   25  A    between atoms: CA_55  and  N_68 
REMARK   26  A    between atoms: CA_55  and  C_56 
REMARK       I    between atoms: C_56  and  N_77 
REMARK   27  A    between atoms: CB_57  and  CG_58 
REMARK   28  A    between atoms: CA_71  and  N_77 
REMARK   29  A    between atoms: CA_71  and  CB_73 
REMARK   30  A    between atoms: CA_71  and  C_72 
ROOT
ATOM      1  CA  HIS B   4       9.373  93.509  63.445  1.00  0.00     0.182 C 
ENDROOT
BRANCH   1   2
ATOM      2  CB  HIS B   4      10.244  94.159  62.358  1.00  0.00     0.095 C 
BRANCH   2   3
ATOM      3  CG  HIS B   4      11.523  94.717  62.911  1.00  0.00     0.053 A 
ATOM      4  CD2 HIS B   4      11.852  94.648  64.257  1.00  0.00     0.116 A 
ATOM      5  NE2 HIS B   4      13.074  95.246  64.426  1.00  0.00    -0.359 N 
ATOM      6  CE1 HIS B   4      13.391  95.634  63.161  1.00  0.00     0.207 A 
ATOM      7  HE2 HIS B   4      13.610  95.368  65.297  1.00  0.00     0.166 HD
ATOM      8  ND1 HIS B   4      12.519  95.356  62.175  1.00  0.00    -0.247 NA
ENDBRANCH   2   3
ENDBRANCH   1   2
BRANCH   1   9
ATOM      9  C   HIS B   4       7.968  93.295  62.936  1.00  0.00     0.241 C 
ATOM     10  O   HIS B   4       7.716  93.222  61.734  1.00  0.00    -0.271 OA
ATOM     11  N   THR B   5       7.033  93.210  63.880  1.00  7.70    -0.344 N 
ATOM     12  H   THR B   5       7.299  93.283  64.821  1.00  0.23     0.163 HD
BRANCH  11  13
ATOM     13  CA  THR B   5       5.624  93.006  63.555  1.00  7.88     0.205 C 
BRANCH  13  14
ATOM     14  CB  THR B   5       5.287  93.667  62.217  1.00  4.05     0.146 C 
ATOM     15  CG2 THR B   5       4.526  92.758  61.277  1.00  3.72     0.042 C 
BRANCH  14  16
ATOM     16  OG1 THR B   5       4.505  94.831  62.417  1.00  7.31    -0.393 OA
ATOM     17  HG1 THR B   5       3.664  94.587  62.811  1.00  0.23     0.210 HD
ENDBRANCH  14  16
ENDBRANCH  13  14
BRANCH  13  18
ATOM     18  C   THR B   5       5.296  91.518  63.497  1.00  7.05     0.243 C 
ATOM     19  O   THR B   5       6.191  90.679  63.401  1.00  6.06    -0.271 OA
ATOM     20  N   TRP B   6       4.008  91.197  63.560  1.00  0.00    -0.346 N 
ATOM     21  H   TRP B   6       3.340  91.910  63.638  1.00  0.23     0.163 HD
BRANCH  20  22
ATOM     22  CA  TRP B   6       3.564  89.809  63.519  1.00  0.00     0.181 C 
BRANCH  22  23
ATOM     23  CB  TRP B   6       2.231  89.660  64.253  1.00  0.00     0.075 C 
BRANCH  23  24
ATOM     24  CG  TRP B   6       2.391  89.544  65.738  1.00  0.00    -0.028 A 
ATOM     25  CD2 TRP B   6       1.908  90.462  66.726  1.00  0.00    -0.002 A 
ATOM     26  CE3 TRP B   6       1.199  91.665  66.667  1.00  0.00     0.014 A 
ATOM     27  CE2 TRP B   6       2.279  89.953  67.984  1.00  0.00     0.042 A 
ATOM     28  CZ3 TRP B   6       0.886  92.312  67.849  1.00  0.00     0.001 A 
ATOM     29  CH2 TRP B   6       1.269  91.782  69.087  1.00  0.00     0.002 A 
ATOM     30  CZ2 TRP B   6       1.963  90.606  69.173  1.00  0.00     0.030 A 
ATOM     31  NE1 TRP B   6       2.956  88.781  67.772  1.00  0.00    -0.365 N 
ATOM     32  CD1 TRP B   6       3.019  88.542  66.420  1.00  0.00     0.096 A 
ATOM     33  HE1 TRP B   6       3.334  88.205  68.470  1.00  0.23     0.165 HD
ENDBRANCH  23  24
ENDBRANCH  22  23
BRANCH  22  34
ATOM     34  C   TRP B   6       3.430  89.322  62.079  1.00  0.00     0.241 C 
ATOM     35  N   VAL B   7       4.513  88.762  61.548  1.00  6.11    -0.344 N 
ATOM     36  H   VAL B   7       5.325  88.688  62.090  1.00  0.23     0.163 HD
ATOM     37  O   TRP B   6       2.371  89.455  61.465  1.00  0.00    -0.271 OA
BRANCH  35  38
ATOM     38  CA  VAL B   7       4.521  88.258  60.181  1.00  5.65     0.189 C 
BRANCH  38  39
ATOM     39  CB  VAL B   7       5.380  89.150  59.264  1.00  1.15     0.010 C 
ATOM     40  CG1 VAL B   7       4.516  90.194  58.573  1.00  4.96     0.012 C 
ATOM     41  CG2 VAL B   7       6.500  89.812  60.052  1.00  9.83     0.012 C 
ENDBRANCH  38  39
BRANCH  38  42
ATOM     42  C   VAL B   7       5.051  86.828  60.125  1.00  4.44     0.197 C 
ATOM     43  O   VAL B   7       5.509  86.328  61.174  1.00  0.00    -0.646 OA
ATOM     44  OXT VAL B   7       5.004  86.222  59.035  1.00  0.00    -0.646 OA
ENDBRANCH  38  42
ENDBRANCH  35  38
ENDBRANCH  22  34
ENDBRANCH  20  22
ENDBRANCH  13  18
ENDBRANCH  11  13
ENDBRANCH   1   9
BRANCH   1  45
ATOM     45  N   HIS B   4      10.008  92.237  63.776  1.00  0.00    -0.346 N 
ATOM     46  C   PHE B   3      10.013  91.794  65.067  1.00  0.00     0.241 C 
ATOM     47  O   PHE B   3       9.487  92.448  65.983  1.00  0.00    -0.271 OA
ATOM     48  H   HIS B   4      10.426  91.710  63.082  1.00  0.00     0.163 HD
BRANCH  46  49
ATOM     49  CA  PHE B   3      10.659  90.460  65.355  1.00  0.00     0.180 C 
BRANCH  49  50
ATOM     50  N   PHE B   3       9.659  89.400  65.432  1.00  0.00    -0.346 N 
ATOM     51  H   PHE B   3       9.302  89.018  64.607  1.00  0.00     0.163 HD
ATOM     52  C   CYS B   2       9.215  88.936  66.615  1.00  0.00     0.241 C 
ATOM     53  O   CYS B   2       9.627  89.368  67.688  1.00  0.00    -0.271 OA
BRANCH  52  54
ATOM     54  CA  CYS B   2       8.146  87.870  66.546  1.00  0.00     0.185 C 
BRANCH  54  55
ATOM     55  CB  CYS B   2       6.774  88.438  66.136  1.00  0.00     0.105 C 
BRANCH  55  56
ATOM     56  SG  CYS B   2       6.445  89.997  66.990  1.00  0.00    -0.180 SA
ATOM     57  HG  CYS B   2       6.862  90.803  66.016  1.00  0.00     0.101 HD
ENDBRANCH  55  56
ENDBRANCH  54  55
BRANCH  54  58
ATOM     58  N   CYS B   2       8.002  87.191  67.831  1.00  0.00    -0.345 N 
ATOM     59  H   CYS B   2       7.581  87.667  68.581  1.00  0.00     0.163 HD
ATOM     60  C   LYS B   1       8.428  85.937  68.011  1.00  0.00     0.254 C 
ATOM     61  O   LYS B   1       8.916  85.271  67.091  1.00  0.00    -0.271 OA
BRANCH  60  62
ATOM     62  CA  LYS B   1       8.235  85.358  69.393  1.00  0.00     0.350 C 
BRANCH  62  63
ATOM     63  N   LYS B   1       7.289  86.156  70.167  1.00  0.00     0.312 N 
ATOM     64  H   LYS B   1       7.111  87.083  69.669  1.00  0.00     0.359 HD
ENDBRANCH  62  63
BRANCH  62  65
ATOM     65  CB  LYS B   1       7.732  83.891  69.315  1.00  0.00     0.048 C 
BRANCH  65  66
ATOM     66  CG  LYS B   1       7.353  83.295  70.694  1.00  0.00     0.004 C 
BRANCH  66  67
ATOM     67  CD  LYS B   1       8.227  82.124  71.151  1.00  0.00     0.027 C 
BRANCH  67  68
ATOM     68  CE  LYS B   1       7.435  80.816  71.008  1.00  0.00     0.229 C 
BRANCH  68  69
ATOM     69  NZ  LYS B   1       6.036  81.045  71.407  1.00  0.00    -0.079 N 
ATOM     70  HZ3 LYS B   1       5.732  80.202  71.873  1.00  0.00     0.274 HD
ATOM     71  HZ2 LYS B   1       5.444  81.246  70.594  1.00  0.00     0.274 HD
ATOM     72  HZ1 LYS B   1       5.963  81.864  72.022  1.00  0.00     0.274 HD
ENDBRANCH  68  69
ENDBRANCH  67  68
ENDBRANCH  66  67
ENDBRANCH  65  66
ENDBRANCH  62  65
ENDBRANCH  60  62
ENDBRANCH  54  58
ENDBRANCH  52  54
ENDBRANCH  49  50
BRANCH  49  73
ATOM     73  CB  PHE B   3      11.686  90.145  64.225  1.00  0.00     0.073 C 
BRANCH  73  74
ATOM     74  CG  PHE B   3      12.955  91.012  64.192  1.00  0.00    -0.056 A 
ATOM     75  CD2 PHE B   3      13.667  91.283  65.363  1.00  0.00     0.007 A 
ATOM     76  CE2 PHE B   3      14.853  92.011  65.307  1.00  0.00     0.001 A 
ATOM     77  CZ  PHE B   3      15.334  92.465  64.080  1.00  0.00     0.000 A 
ATOM     78  CE1 PHE B   3      14.629  92.198  62.909  1.00  0.00     0.001 A 
ATOM     79  CD1 PHE B   3      13.439  91.481  62.966  1.00  0.00     0.007 A 
ENDBRANCH  73  74
ENDBRANCH  49  73
ENDBRANCH  46  49
ENDBRANCH   1  45
TORSDOF 30
ENDMDL
