MODEL 1
REMARK VINA RESULT:      -6.5      0.000      0.000
REMARK  30 active torsions:
REMARK  status: ('A' for Active; 'I' for Inactive)
REMARK    1  A    between atoms: N_1  and  CA_2 
REMARK    2  A    between atoms: CA_2  and  CB_5 
REMARK    3  A    between atoms: CA_2  and  C_3 
REMARK       I    between atoms: C_3  and  N_14 
REMARK    4  A    between atoms: CB_5  and  CG_6 
REMARK    5  A    between atoms: CG_6  and  CD_7 
REMARK    6  A    between atoms: CD_7  and  CE_8 
REMARK    7  A    between atoms: CE_8  and  NZ_9 
REMARK    8  A    between atoms: N_14  and  CA_15 
REMARK    9  A    between atoms: CA_15  and  CB_18 
REMARK   10  A    between atoms: CA_15  and  C_16 
REMARK       I    between atoms: C_16  and  N_22 
REMARK   11  A    between atoms: CB_18  and  SG_19 
REMARK   12  A    between atoms: N_22  and  CA_23 
REMARK   13  A    between atoms: CA_23  and  CB_26 
REMARK   14  A    between atoms: CA_23  and  C_24 
REMARK       I    between atoms: C_24  and  N_34 
REMARK   15  A    between atoms: CB_26  and  CG_27 
REMARK   16  A    between atoms: N_34  and  CA_35 
REMARK   17  A    between atoms: CA_35  and  CB_38 
REMARK   18  A    between atoms: CA_35  and  C_36 
REMARK       I    between atoms: C_36  and  N_52 
REMARK   19  A    between atoms: CB_38  and  CG_39 
REMARK   20  A    between atoms: CA_46  and  N_52 
REMARK   21  A    between atoms: CA_46  and  CB_48 
REMARK   22  A    between atoms: CA_46  and  C_47 
REMARK       I    between atoms: C_47  and  N_68 
REMARK   23  A    between atoms: CB_48  and  OG1_54 
REMARK   24  A    between atoms: CA_55  and  CB_57 
REMARK   25  A    between atoms: CA_55  and  N_68 
REMARK   26  A    between atoms: CA_55  and  C_56 
REMARK       I    between atoms: C_56  and  N_77 
REMARK   27  A    between atoms: CB_57  and  CG_58 
REMARK   28  A    between atoms: CA_71  and  N_77 
REMARK   29  A    between atoms: CA_71  and  CB_73 
REMARK   30  A    between atoms: CA_71  and  C_72 
ROOT
ATOM      1  CA  PHE B   4       5.543  88.188  69.962  1.00  0.00     0.180 C 
ENDROOT
BRANCH   1   2
ATOM      2  N   PHE B   4       4.597  88.968  69.170  1.00  0.00    -0.346 N 
ATOM      3  C   PHE B   3       3.615  89.654  69.743  1.00  0.00     0.241 C 
ATOM      4  O   PHE B   3       3.464  89.673  70.975  1.00  0.00    -0.271 OA
ATOM      5  H   PHE B   4       4.690  88.986  68.192  1.00  0.00     0.163 HD
BRANCH   3   6
ATOM      6  CA  PHE B   3       2.693  90.447  68.848  1.00  0.00     0.180 C 
BRANCH   6   7
ATOM      7  N   PHE B   3       2.527  89.791  67.555  1.00  0.00    -0.346 N 
ATOM      8  H   PHE B   3       2.397  88.823  67.523  1.00  0.00     0.163 HD
ATOM      9  C   CYS B   2       2.548  90.488  66.403  1.00  0.00     0.241 C 
ATOM     10  O   CYS B   2       2.702  91.706  66.374  1.00  0.00    -0.271 OA
BRANCH   9  11
ATOM     11  CA  CYS B   2       2.409  89.674  65.137  1.00  0.00     0.185 C 
BRANCH  11  12
ATOM     12  CB  CYS B   2       2.117  88.188  65.422  1.00  0.00     0.105 C 
BRANCH  12  13
ATOM     13  SG  CYS B   2       0.557  87.685  64.659  1.00  0.00    -0.180 SA
ATOM     14  HG  CYS B   2      -0.131  87.536  65.788  1.00  0.00     0.101 HD
ENDBRANCH  12  13
ENDBRANCH  11  12
BRANCH  11  15
ATOM     15  N   CYS B   2       3.620  89.761  64.325  1.00  0.00    -0.345 N 
ATOM     16  H   CYS B   2       3.550  90.052  63.389  1.00  0.00     0.163 HD
ATOM     17  C   LYS B   1       4.821  89.455  64.824  1.00  0.00     0.254 C 
ATOM     18  O   LYS B   1       4.977  89.134  66.007  1.00  0.00    -0.271 OA
BRANCH  17  19
ATOM     19  CA  LYS B   1       5.989  89.569  63.873  1.00  0.00     0.350 C 
BRANCH  19  20
ATOM     20  N   LYS B   1       6.785  88.346  63.873  1.00  0.00     0.312 N 
ATOM     21  H   LYS B   1       6.155  87.509  63.667  1.00  0.00     0.359 HD
ENDBRANCH  19  20
BRANCH  19  22
ATOM     22  CB  LYS B   1       5.501  89.869  62.429  1.00  0.00     0.048 C 
BRANCH  22  23
ATOM     23  CG  LYS B   1       6.563  89.561  61.344  1.00  0.00     0.004 C 
BRANCH  23  24
ATOM     24  CD  LYS B   1       5.999  89.022  60.026  1.00  0.00     0.027 C 
BRANCH  24  25
ATOM     25  CE  LYS B   1       7.046  88.118  59.360  1.00  0.00     0.229 C 
BRANCH  25  26
ATOM     26  NZ  LYS B   1       8.230  88.919  59.005  1.00  0.00    -0.079 N 
ATOM     27  HZ3 LYS B   1       7.884  89.744  58.536  1.00  0.00     0.274 HD
ATOM     28  HZ2 LYS B   1       8.867  88.394  58.398  1.00  0.00     0.274 HD
ATOM     29  HZ1 LYS B   1       8.769  89.160  59.845  1.00  0.00     0.274 HD
ENDBRANCH  25  26
ENDBRANCH  24  25
ENDBRANCH  23  24
ENDBRANCH  22  23
ENDBRANCH  19  22
ENDBRANCH  17  19
ENDBRANCH  11  15
ENDBRANCH   9  11
ENDBRANCH   6   7
BRANCH   6  30
ATOM     30  CB  PHE B   3       1.312  90.595  69.554  1.00  0.00     0.073 C 
BRANCH  30  31
ATOM     31  CG  PHE B   3       0.885  92.023  69.932  1.00  0.00    -0.056 A 
ATOM     32  CD2 PHE B   3       1.170  92.544  71.196  1.00  0.00     0.007 A 
ATOM     33  CE2 PHE B   3       0.841  93.862  71.501  1.00  0.00     0.001 A 
ATOM     34  CZ  PHE B   3       0.230  94.666  70.540  1.00  0.00     0.000 A 
ATOM     35  CE1 PHE B   3      -0.058  94.153  69.277  1.00  0.00     0.001 A 
ATOM     36  CD1 PHE B   3       0.261  92.834  68.977  1.00  0.00     0.007 A 
ENDBRANCH  30  31
ENDBRANCH   6  30
ENDBRANCH   3   6
ENDBRANCH   1   2
BRANCH   1  37
ATOM     37  CB  PHE B   4       5.861  86.842  69.244  1.00  0.00     0.073 C 
BRANCH  37  38
ATOM     38  CG  PHE B   4       5.475  85.557  69.992  1.00  0.00    -0.056 A 
ATOM     39  CD1 PHE B   4       4.343  85.550  70.815  1.00  0.00     0.007 A 
ATOM     40  CE1 PHE B   4       4.026  84.422  71.562  1.00  0.00     0.001 A 
ATOM     41  CZ  PHE B   4       4.827  83.286  71.479  1.00  0.00     0.000 A 
ATOM     42  CE2 PHE B   4       5.950  83.280  70.652  1.00  0.00     0.001 A 
ATOM     43  CD2 PHE B   4       6.274  84.415  69.912  1.00  0.00     0.007 A 
ENDBRANCH  37  38
ENDBRANCH   1  37
BRANCH   1  44
ATOM     44  C   PHE B   4       6.834  88.947  70.167  1.00  0.00     0.241 C 
ATOM     45  O   PHE B   4       6.969  89.764  71.081  1.00  0.00    -0.271 OA
ATOM     46  N   THR B   5       7.820  88.668  69.307  1.00  7.70    -0.344 N 
ATOM     47  H   THR B   5       7.656  88.010  68.599  1.00  0.23     0.163 HD
BRANCH  46  48
ATOM     48  CA  THR B   5       9.127  89.314  69.385  1.00  7.88     0.205 C 
BRANCH  48  49
ATOM     49  CB  THR B   5      10.234  88.262  69.477  1.00  4.05     0.146 C 
ATOM     50  CG2 THR B   5       9.771  86.959  70.093  1.00  3.72     0.042 C 
BRANCH  49  51
ATOM     51  OG1 THR B   5      10.753  87.967  68.192  1.00  7.31    -0.393 OA
ATOM     52  HG1 THR B   5      10.052  88.040  67.540  1.00  0.23     0.210 HD
ENDBRANCH  49  51
ENDBRANCH  48  49
BRANCH  48  53
ATOM     53  C   THR B   5       9.359  90.208  68.171  1.00  7.05     0.243 C 
ATOM     54  O   THR B   5      10.297  91.003  68.144  1.00  6.06    -0.271 OA
ATOM     55  N   TRP B   6       8.500  90.070  67.167  1.00  0.00    -0.346 N 
ATOM     56  H   TRP B   6       7.772  89.418  67.245  1.00  0.23     0.163 HD
BRANCH  55  57
ATOM     57  CA  TRP B   6       8.615  90.863  65.949  1.00  0.00     0.181 C 
BRANCH  57  58
ATOM     58  CB  TRP B   6       8.293  92.329  66.242  1.00  0.00     0.075 C 
BRANCH  58  59
ATOM     59  CG  TRP B   6       7.040  92.797  65.568  1.00  0.00    -0.028 A 
ATOM     60  CD2 TRP B   6       6.846  92.996  64.162  1.00  0.00    -0.002 A 
ATOM     61  CE3 TRP B   6       7.666  92.848  63.040  1.00  0.00     0.014 A 
ATOM     62  CE2 TRP B   6       5.520  93.432  63.982  1.00  0.00     0.042 A 
ATOM     63  CZ3 TRP B   6       7.144  93.136  61.792  1.00  0.00     0.001 A 
ATOM     64  CH2 TRP B   6       5.821  93.568  61.643  1.00  0.00     0.002 A 
ATOM     65  CZ2 TRP B   6       4.997  93.721  62.724  1.00  0.00     0.030 A 
ATOM     66  NE1 TRP B   6       4.935  93.496  65.220  1.00  0.00    -0.365 N 
ATOM     67  CD1 TRP B   6       5.854  93.113  66.166  1.00  0.00     0.096 A 
ATOM     68  HE1 TRP B   6       4.011  93.769  65.401  1.00  0.23     0.165 HD
ENDBRANCH  58  59
ENDBRANCH  57  58
BRANCH  57  69
ATOM     69  C   TRP B   6      10.012  90.741  65.349  1.00  0.00     0.241 C 
ATOM     70  N   VAL B   7      10.805  91.798  65.496  1.00  6.11    -0.344 N 
ATOM     71  H   VAL B   7      10.468  92.585  65.971  1.00  0.23     0.163 HD
ATOM     72  O   TRP B   6      10.360  89.715  64.764  1.00  0.00    -0.271 OA
BRANCH  70  73
ATOM     73  CA  VAL B   7      12.163  91.815  64.967  1.00  5.65     0.189 C 
BRANCH  73  74
ATOM     74  CB  VAL B   7      12.646  93.257  64.719  1.00  1.15     0.010 C 
ATOM     75  CG1 VAL B   7      13.534  93.318  63.484  1.00  4.96     0.012 C 
ATOM     76  CG2 VAL B   7      11.463  94.204  64.579  1.00  9.83     0.012 C 
ENDBRANCH  73  74
BRANCH  73  77
ATOM     77  C   VAL B   7      13.134  91.121  65.919  1.00  4.44     0.197 C 
ATOM     78  O   VAL B   7      13.432  91.703  66.983  1.00  0.00    -0.646 OA
ATOM     79  OXT VAL B   7      13.586  90.006  65.593  1.00  0.00    -0.646 OA
ENDBRANCH  73  77
ENDBRANCH  70  73
ENDBRANCH  57  69
ENDBRANCH  55  57
ENDBRANCH  48  53
ENDBRANCH  46  48
ENDBRANCH   1  44
TORSDOF 30
ENDMDL
MODEL 2
REMARK VINA RESULT:      -6.4      2.628      4.873
REMARK  30 active torsions:
REMARK  status: ('A' for Active; 'I' for Inactive)
REMARK    1  A    between atoms: N_1  and  CA_2 
REMARK    2  A    between atoms: CA_2  and  CB_5 
REMARK    3  A    between atoms: CA_2  and  C_3 
REMARK       I    between atoms: C_3  and  N_14 
REMARK    4  A    between atoms: CB_5  and  CG_6 
REMARK    5  A    between atoms: CG_6  and  CD_7 
REMARK    6  A    between atoms: CD_7  and  CE_8 
REMARK    7  A    between atoms: CE_8  and  NZ_9 
REMARK    8  A    between atoms: N_14  and  CA_15 
REMARK    9  A    between atoms: CA_15  and  CB_18 
REMARK   10  A    between atoms: CA_15  and  C_16 
REMARK       I    between atoms: C_16  and  N_22 
REMARK   11  A    between atoms: CB_18  and  SG_19 
REMARK   12  A    between atoms: N_22  and  CA_23 
REMARK   13  A    between atoms: CA_23  and  CB_26 
REMARK   14  A    between atoms: CA_23  and  C_24 
REMARK       I    between atoms: C_24  and  N_34 
REMARK   15  A    between atoms: CB_26  and  CG_27 
REMARK   16  A    between atoms: N_34  and  CA_35 
REMARK   17  A    between atoms: CA_35  and  CB_38 
REMARK   18  A    between atoms: CA_35  and  C_36 
REMARK       I    between atoms: C_36  and  N_52 
REMARK   19  A    between atoms: CB_38  and  CG_39 
REMARK   20  A    between atoms: CA_46  and  N_52 
REMARK   21  A    between atoms: CA_46  and  CB_48 
REMARK   22  A    between atoms: CA_46  and  C_47 
REMARK       I    between atoms: C_47  and  N_68 
REMARK   23  A    between atoms: CB_48  and  OG1_54 
REMARK   24  A    between atoms: CA_55  and  CB_57 
REMARK   25  A    between atoms: CA_55  and  N_68 
REMARK   26  A    between atoms: CA_55  and  C_56 
REMARK       I    between atoms: C_56  and  N_77 
REMARK   27  A    between atoms: CB_57  and  CG_58 
REMARK   28  A    between atoms: CA_71  and  N_77 
REMARK   29  A    between atoms: CA_71  and  CB_73 
REMARK   30  A    between atoms: CA_71  and  C_72 
ROOT
ATOM      1  CA  PHE B   4       5.687  88.166  68.576  1.00  0.00     0.180 C 
ENDROOT
BRANCH   1   2
ATOM      2  N   PHE B   4       4.662  88.442  67.573  1.00  0.00    -0.346 N 
ATOM      3  C   PHE B   3       3.414  88.017  67.725  1.00  0.00     0.241 C 
ATOM      4  O   PHE B   3       3.058  87.378  68.728  1.00  0.00    -0.271 OA
ATOM      5  H   PHE B   4       4.902  88.954  66.770  1.00  0.00     0.163 HD
BRANCH   3   6
ATOM      6  CA  PHE B   3       2.414  88.363  66.647  1.00  0.00     0.180 C 
BRANCH   6   7
ATOM      7  N   PHE B   3       2.259  87.260  65.704  1.00  0.00    -0.346 N 
ATOM      8  H   PHE B   3       2.273  86.341  66.037  1.00  0.00     0.163 HD
ATOM      9  C   CYS B   2       2.096  87.478  64.386  1.00  0.00     0.241 C 
ATOM     10  O   CYS B   2       2.064  88.607  63.905  1.00  0.00    -0.271 OA
BRANCH   9  11
ATOM     11  CA  CYS B   2       1.994  86.242  63.521  1.00  0.00     0.185 C 
BRANCH  11  12
ATOM     12  CB  CYS B   2       2.121  84.941  64.336  1.00  0.00     0.105 C 
BRANCH  12  13
ATOM     13  SG  CYS B   2       1.721  83.504  63.315  1.00  0.00    -0.180 SA
ATOM     14  HG  CYS B   2       1.662  82.617  64.305  1.00  0.00     0.101 HD
ENDBRANCH  12  13
ENDBRANCH  11  12
BRANCH  11  15
ATOM     15  N   CYS B   2       3.022  86.243  62.484  1.00  0.00    -0.345 N 
ATOM     16  H   CYS B   2       3.965  86.142  62.743  1.00  0.00     0.163 HD
ATOM     17  C   LYS B   1       2.712  86.378  61.192  1.00  0.00     0.254 C 
ATOM     18  O   LYS B   1       1.542  86.456  60.802  1.00  0.00    -0.271 OA
BRANCH  17  19
ATOM     19  CA  LYS B   1       3.871  86.381  60.223  1.00  0.00     0.350 C 
BRANCH  19  20
ATOM     20  N   LYS B   1       4.049  87.701  59.624  1.00  0.00     0.312 N 
ATOM     21  H   LYS B   1       4.827  88.223  60.134  1.00  0.00     0.359 HD
ENDBRANCH  19  20
BRANCH  19  22
ATOM     22  CB  LYS B   1       5.186  85.953  60.931  1.00  0.00     0.048 C 
BRANCH  22  23
ATOM     23  CG  LYS B   1       6.227  85.328  59.969  1.00  0.00     0.004 C 
BRANCH  23  24
ATOM     24  CD  LYS B   1       7.223  86.321  59.363  1.00  0.00     0.027 C 
BRANCH  24  25
ATOM     25  CE  LYS B   1       6.989  86.413  57.849  1.00  0.00     0.229 C 
BRANCH  25  26
ATOM     26  NZ  LYS B   1       5.925  85.471  57.460  1.00  0.00    -0.079 N 
ATOM     27  HZ3 LYS B   1       5.106  86.031  57.268  1.00  0.00     0.274 HD
ATOM     28  HZ2 LYS B   1       5.736  84.793  58.205  1.00  0.00     0.274 HD
ATOM     29  HZ1 LYS B   1       6.209  84.923  56.640  1.00  0.00     0.274 HD
ENDBRANCH  25  26
ENDBRANCH  24  25
ENDBRANCH  23  24
ENDBRANCH  22  23
ENDBRANCH  19  22
ENDBRANCH  17  19
ENDBRANCH  11  15
ENDBRANCH   9  11
ENDBRANCH   6   7
BRANCH   6  30
ATOM     30  CB  PHE B   3       1.046  88.691  67.317  1.00  0.00     0.073 C 
BRANCH  30  31
ATOM     31  CG  PHE B   3       0.829  90.149  67.753  1.00  0.00    -0.056 A 
ATOM     32  CD2 PHE B   3       1.047  90.540  69.076  1.00  0.00     0.007 A 
ATOM     33  CE2 PHE B   3       0.914  91.878  69.441  1.00  0.00     0.001 A 
ATOM     34  CZ  PHE B   3       0.569  92.830  68.483  1.00  0.00     0.000 A 
ATOM     35  CE1 PHE B   3       0.350  92.446  67.162  1.00  0.00     0.001 A 
ATOM     36  CD1 PHE B   3       0.471  91.110  66.800  1.00  0.00     0.007 A 
ENDBRANCH  30  31
ENDBRANCH   6  30
ENDBRANCH   3   6
ENDBRANCH   1   2
BRANCH   1  37
ATOM     37  CB  PHE B   4       6.426  86.836  68.233  1.00  0.00     0.073 C 
BRANCH  37  38
ATOM     38  CG  PHE B   4       7.520  86.388  69.214  1.00  0.00    -0.056 A 
ATOM     39  CD1 PHE B   4       7.184  86.100  70.541  1.00  0.00     0.007 A 
ATOM     40  CE1 PHE B   4       8.173  85.772  71.461  1.00  0.00     0.001 A 
ATOM     41  CZ  PHE B   4       9.505  85.713  71.057  1.00  0.00     0.000 A 
ATOM     42  CE2 PHE B   4       9.848  85.988  69.733  1.00  0.00     0.001 A 
ATOM     43  CD2 PHE B   4       8.857  86.327  68.815  1.00  0.00     0.007 A 
ENDBRANCH  37  38
ENDBRANCH   1  37
BRANCH   1  44
ATOM     44  C   PHE B   4       6.701  89.284  68.637  1.00  0.00     0.241 C 
ATOM     45  O   PHE B   4       6.938  89.889  69.685  1.00  0.00    -0.271 OA
ATOM     46  N   THR B   5       7.331  89.567  67.491  1.00  7.70    -0.344 N 
ATOM     47  H   THR B   5       7.102  89.053  66.688  1.00  0.23     0.163 HD
BRANCH  46  48
ATOM     48  CA  THR B   5       8.344  90.614  67.397  1.00  7.88     0.205 C 
BRANCH  48  49
ATOM     49  CB  THR B   5       9.665  90.031  66.894  1.00  4.05     0.146 C 
ATOM     50  CG2 THR B   5      10.561  89.533  68.007  1.00  3.72     0.042 C 
BRANCH  49  51
ATOM     51  OG1 THR B   5       9.431  88.947  66.013  1.00  7.31    -0.393 OA
ATOM     52  HG1 THR B   5      10.203  88.812  65.459  1.00  0.23     0.210 HD
ENDBRANCH  49  51
ENDBRANCH  48  49
BRANCH  48  53
ATOM     53  C   THR B   5       7.879  91.729  66.465  1.00  7.05     0.243 C 
ATOM     54  O   THR B   5       7.178  92.650  66.885  1.00  6.06    -0.271 OA
ATOM     55  N   TRP B   6       8.274  91.642  65.200  1.00  0.00    -0.346 N 
ATOM     56  H   TRP B   6       8.833  90.885  64.924  1.00  0.23     0.163 HD
BRANCH  55  57
ATOM     57  CA  TRP B   6       7.900  92.645  64.212  1.00  0.00     0.181 C 
BRANCH  57  58
ATOM     58  CB  TRP B   6       9.085  92.949  63.294  1.00  0.00     0.075 C 
BRANCH  58  59
ATOM     59  CG  TRP B   6      10.368  93.149  64.042  1.00  0.00    -0.028 A 
ATOM     60  CD2 TRP B   6      11.395  92.174  64.255  1.00  0.00    -0.002 A 
ATOM     61  CE3 TRP B   6      11.551  90.834  63.891  1.00  0.00     0.014 A 
ATOM     62  CE2 TRP B   6      12.414  92.799  64.999  1.00  0.00     0.042 A 
ATOM     63  CZ3 TRP B   6      12.703  90.169  64.274  1.00  0.00     0.001 A 
ATOM     64  CH2 TRP B   6      13.700  90.817  65.014  1.00  0.00     0.002 A 
ATOM     65  CZ2 TRP B   6      13.572  92.128  65.383  1.00  0.00     0.030 A 
ATOM     66  NE1 TRP B   6      12.024  94.093  65.226  1.00  0.00    -0.365 N 
ATOM     67  CD1 TRP B   6      10.794  94.295  64.648  1.00  0.00     0.096 A 
ATOM     68  HE1 TRP B   6      12.539  94.765  65.721  1.00  0.23     0.165 HD
ENDBRANCH  58  59
ENDBRANCH  57  58
BRANCH  57  69
ATOM     69  C   TRP B   6       6.703  92.181  63.389  1.00  0.00     0.241 C 
ATOM     70  N   VAL B   7       6.892  92.102  62.075  1.00  6.11    -0.344 N 
ATOM     71  H   VAL B   7       7.767  92.337  61.704  1.00  0.23     0.163 HD
ATOM     72  O   TRP B   6       5.633  91.905  63.932  1.00  0.00    -0.271 OA
BRANCH  70  73
ATOM     73  CA  VAL B   7       5.830  91.675  61.173  1.00  5.65     0.189 C 
BRANCH  73  74
ATOM     74  CB  VAL B   7       5.753  92.586  59.932  1.00  1.15     0.010 C 
ATOM     75  CG1 VAL B   7       4.308  92.951  59.626  1.00  4.96     0.012 C 
ATOM     76  CG2 VAL B   7       6.595  93.838  60.131  1.00  9.83     0.012 C 
ENDBRANCH  73  74
BRANCH  73  77
ATOM     77  C   VAL B   7       6.037  90.233  60.721  1.00  4.44     0.197 C 
ATOM     78  O   VAL B   7       5.784  89.318  61.533  1.00  0.00    -0.646 OA
ATOM     79  OXT VAL B   7       6.451  90.030  59.562  1.00  0.00    -0.646 OA
ENDBRANCH  73  77
ENDBRANCH  70  73
ENDBRANCH  57  69
ENDBRANCH  55  57
ENDBRANCH  48  53
ENDBRANCH  46  48
ENDBRANCH   1  44
TORSDOF 30
ENDMDL
MODEL 3
REMARK VINA RESULT:      -6.3      3.370      6.205
REMARK  30 active torsions:
REMARK  status: ('A' for Active; 'I' for Inactive)
REMARK    1  A    between atoms: N_1  and  CA_2 
REMARK    2  A    between atoms: CA_2  and  CB_5 
REMARK    3  A    between atoms: CA_2  and  C_3 
REMARK       I    between atoms: C_3  and  N_14 
REMARK    4  A    between atoms: CB_5  and  CG_6 
REMARK    5  A    between atoms: CG_6  and  CD_7 
REMARK    6  A    between atoms: CD_7  and  CE_8 
REMARK    7  A    between atoms: CE_8  and  NZ_9 
REMARK    8  A    between atoms: N_14  and  CA_15 
REMARK    9  A    between atoms: CA_15  and  CB_18 
REMARK   10  A    between atoms: CA_15  and  C_16 
REMARK       I    between atoms: C_16  and  N_22 
REMARK   11  A    between atoms: CB_18  and  SG_19 
REMARK   12  A    between atoms: N_22  and  CA_23 
REMARK   13  A    between atoms: CA_23  and  CB_26 
REMARK   14  A    between atoms: CA_23  and  C_24 
REMARK       I    between atoms: C_24  and  N_34 
REMARK   15  A    between atoms: CB_26  and  CG_27 
REMARK   16  A    between atoms: N_34  and  CA_35 
REMARK   17  A    between atoms: CA_35  and  CB_38 
REMARK   18  A    between atoms: CA_35  and  C_36 
REMARK       I    between atoms: C_36  and  N_52 
REMARK   19  A    between atoms: CB_38  and  CG_39 
REMARK   20  A    between atoms: CA_46  and  N_52 
REMARK   21  A    between atoms: CA_46  and  CB_48 
REMARK   22  A    between atoms: CA_46  and  C_47 
REMARK       I    between atoms: C_47  and  N_68 
REMARK   23  A    between atoms: CB_48  and  OG1_54 
REMARK   24  A    between atoms: CA_55  and  CB_57 
REMARK   25  A    between atoms: CA_55  and  N_68 
REMARK   26  A    between atoms: CA_55  and  C_56 
REMARK       I    between atoms: C_56  and  N_77 
REMARK   27  A    between atoms: CB_57  and  CG_58 
REMARK   28  A    between atoms: CA_71  and  N_77 
REMARK   29  A    between atoms: CA_71  and  CB_73 
REMARK   30  A    between atoms: CA_71  and  C_72 
ROOT
ATOM      1  CA  PHE B   4       8.480  88.018  66.007  1.00  0.00     0.180 C 
ENDROOT
BRANCH   1   2
ATOM      2  N   PHE B   4       8.557  88.103  64.552  1.00  0.00    -0.346 N 
ATOM      3  C   PHE B   3       7.499  88.436  63.821  1.00  0.00     0.241 C 
ATOM      4  O   PHE B   3       6.404  88.703  64.341  1.00  0.00    -0.271 OA
ATOM      5  H   PHE B   4       9.409  87.910  64.104  1.00  0.00     0.163 HD
BRANCH   3   6
ATOM      6  CA  PHE B   3       7.673  88.517  62.323  1.00  0.00     0.180 C 
BRANCH   6   7
ATOM      7  N   PHE B   3       6.843  87.526  61.647  1.00  0.00    -0.346 N 
ATOM      8  H   PHE B   3       5.986  87.270  62.042  1.00  0.00     0.163 HD
ATOM      9  C   CYS B   2       7.227  86.957  60.489  1.00  0.00     0.241 C 
ATOM     10  O   CYS B   2       8.287  87.239  59.938  1.00  0.00    -0.271 OA
BRANCH   9  11
ATOM     11  CA  CYS B   2       6.290  85.914  59.924  1.00  0.00     0.185 C 
BRANCH  11  12
ATOM     12  CB  CYS B   2       6.325  85.865  58.384  1.00  0.00     0.105 C 
BRANCH  12  13
ATOM     13  SG  CYS B   2       7.443  84.566  57.810  1.00  0.00    -0.180 SA
ATOM     14  HG  CYS B   2       7.810  84.130  59.012  1.00  0.00     0.101 HD
ENDBRANCH  12  13
ENDBRANCH  11  12
BRANCH  11  15
ATOM     15  N   CYS B   2       4.916  86.162  60.350  1.00  0.00    -0.345 N 
ATOM     16  H   CYS B   2       4.434  86.940  59.991  1.00  0.00     0.163 HD
ATOM     17  C   LYS B   1       4.296  85.355  61.216  1.00  0.00     0.254 C 
ATOM     18  O   LYS B   1       4.832  84.333  61.660  1.00  0.00    -0.271 OA
BRANCH  17  19
ATOM     19  CA  LYS B   1       2.882  85.733  61.588  1.00  0.00     0.350 C 
BRANCH  19  20
ATOM     20  N   LYS B   1       2.747  85.899  63.032  1.00  0.00     0.312 N 
ATOM     21  H   LYS B   1       3.655  85.606  63.512  1.00  0.00     0.359 HD
ENDBRANCH  19  20
BRANCH  19  22
ATOM     22  CB  LYS B   1       2.453  87.045  60.875  1.00  0.00     0.048 C 
BRANCH  22  23
ATOM     23  CG  LYS B   1       1.310  86.842  59.848  1.00  0.00     0.004 C 
BRANCH  23  24
ATOM     24  CD  LYS B   1       1.430  87.684  58.576  1.00  0.00     0.027 C 
BRANCH  24  25
ATOM     25  CE  LYS B   1       1.430  86.757  57.353  1.00  0.00     0.229 C 
BRANCH  25  26
ATOM     26  NZ  LYS B   1       2.481  85.737  57.511  1.00  0.00    -0.079 N 
ATOM     27  HZ3 LYS B   1       2.978  85.703  56.632  1.00  0.00     0.274 HD
ATOM     28  HZ2 LYS B   1       2.082  84.821  57.741  1.00  0.00     0.274 HD
ATOM     29  HZ1 LYS B   1       3.107  85.979  58.288  1.00  0.00     0.274 HD
ENDBRANCH  25  26
ENDBRANCH  24  25
ENDBRANCH  23  24
ENDBRANCH  22  23
ENDBRANCH  19  22
ENDBRANCH  17  19
ENDBRANCH  11  15
ENDBRANCH   9  11
ENDBRANCH   6   7
BRANCH   6  30
ATOM     30  CB  PHE B   3       7.289  89.951  61.849  1.00  0.00     0.073 C 
BRANCH  30  31
ATOM     31  CG  PHE B   3       5.985  90.081  61.047  1.00  0.00    -0.056 A 
ATOM     32  CD2 PHE B   3       4.754  90.197  61.696  1.00  0.00     0.007 A 
ATOM     33  CE2 PHE B   3       3.588  90.385  60.958  1.00  0.00     0.001 A 
ATOM     34  CZ  PHE B   3       3.650  90.462  59.567  1.00  0.00     0.000 A 
ATOM     35  CE1 PHE B   3       4.874  90.346  58.913  1.00  0.00     0.001 A 
ATOM     36  CD1 PHE B   3       6.036  90.147  59.649  1.00  0.00     0.007 A 
ENDBRANCH  30  31
ENDBRANCH   6  30
ENDBRANCH   3   6
ENDBRANCH   1   2
BRANCH   1  37
ATOM     37  CB  PHE B   4       8.864  86.584  66.481  1.00  0.00     0.073 C 
BRANCH  37  38
ATOM     38  CG  PHE B   4       8.103  86.037  67.698  1.00  0.00    -0.056 A 
ATOM     39  CD1 PHE B   4       8.481  84.810  68.256  1.00  0.00     0.007 A 
ATOM     40  CE1 PHE B   4       7.752  84.263  69.305  1.00  0.00     0.001 A 
ATOM     41  CZ  PHE B   4       6.650  84.944  69.816  1.00  0.00     0.000 A 
ATOM     42  CE2 PHE B   4       6.273  86.173  69.273  1.00  0.00     0.001 A 
ATOM     43  CD2 PHE B   4       6.997  86.716  68.215  1.00  0.00     0.007 A 
ENDBRANCH  37  38
ENDBRANCH   1  37
BRANCH   1  44
ATOM     44  C   PHE B   4       9.414  89.012  66.658  1.00  0.00     0.241 C 
ATOM     45  O   PHE B   4       9.238  89.408  67.812  1.00  0.00    -0.271 OA
ATOM     46  N   THR B   5      10.446  89.422  65.911  1.00  7.70    -0.344 N 
ATOM     47  H   THR B   5      10.535  89.073  64.999  1.00  0.23     0.163 HD
BRANCH  46  48
ATOM     48  CA  THR B   5      11.437  90.372  66.407  1.00  7.88     0.205 C 
BRANCH  48  49
ATOM     49  CB  THR B   5      12.842  89.942  65.983  1.00  4.05     0.146 C 
ATOM     50  CG2 THR B   5      13.069  90.029  64.490  1.00  3.72     0.042 C 
BRANCH  49  51
ATOM     51  OG1 THR B   5      13.823  90.747  66.613  1.00  7.31    -0.393 OA
ATOM     52  HG1 THR B   5      14.080  90.346  67.446  1.00  0.23     0.210 HD
ENDBRANCH  49  51
ENDBRANCH  48  49
BRANCH  48  53
ATOM     53  C   THR B   5      11.143  91.776  65.887  1.00  7.05     0.243 C 
ATOM     54  O   THR B   5      11.758  92.750  66.321  1.00  6.06    -0.271 OA
ATOM     55  N   TRP B   6      10.203  91.873  64.954  1.00  0.00    -0.346 N 
ATOM     56  H   TRP B   6       9.748  91.061  64.647  1.00  0.23     0.163 HD
BRANCH  55  57
ATOM     57  CA  TRP B   6       9.832  93.157  64.374  1.00  0.00     0.181 C 
BRANCH  57  58
ATOM     58  CB  TRP B   6       8.704  93.797  65.184  1.00  0.00     0.075 C 
BRANCH  58  59
ATOM     59  CG  TRP B   6       7.378  93.135  64.963  1.00  0.00    -0.028 A 
ATOM     60  CD2 TRP B   6       6.682  92.284  65.882  1.00  0.00    -0.002 A 
ATOM     61  CE3 TRP B   6       6.961  91.811  67.167  1.00  0.00     0.014 A 
ATOM     62  CE2 TRP B   6       5.479  91.897  65.262  1.00  0.00     0.042 A 
ATOM     63  CZ3 TRP B   6       6.043  90.980  67.784  1.00  0.00     0.001 A 
ATOM     64  CH2 TRP B   6       4.854  90.612  67.142  1.00  0.00     0.002 A 
ATOM     65  CZ2 TRP B   6       4.557  91.061  65.885  1.00  0.00     0.030 A 
ATOM     66  NE1 TRP B   6       5.445  92.486  64.024  1.00  0.00    -0.365 N 
ATOM     67  CD1 TRP B   6       6.590  93.228  63.853  1.00  0.00     0.096 A 
ATOM     68  HE1 TRP B   6       4.723  92.394  63.368  1.00  0.23     0.165 HD
ENDBRANCH  58  59
ENDBRANCH  57  58
BRANCH  57  69
ATOM     69  C   TRP B   6      11.034  94.095  64.314  1.00  0.00     0.241 C 
ATOM     70  N   VAL B   7      12.064  93.679  63.583  1.00  6.11    -0.344 N 
ATOM     71  H   VAL B   7      12.007  92.813  63.128  1.00  0.23     0.163 HD
ATOM     72  O   TRP B   6      11.028  95.168  64.918  1.00  0.00    -0.271 OA
BRANCH  70  73
ATOM     73  CA  VAL B   7      13.276  94.476  63.444  1.00  5.65     0.189 C 
BRANCH  73  74
ATOM     74  CB  VAL B   7      14.456  93.616  62.951  1.00  1.15     0.010 C 
ATOM     75  CG1 VAL B   7      15.613  94.500  62.510  1.00  4.96     0.012 C 
ATOM     76  CG2 VAL B   7      14.901  92.644  64.033  1.00  9.83     0.012 C 
ENDBRANCH  73  74
BRANCH  73  77
ATOM     77  C   VAL B   7      13.064  95.635  62.474  1.00  4.44     0.197 C 
ATOM     78  O   VAL B   7      12.379  95.429  61.451  1.00  0.00    -0.646 OA
ATOM     79  OXT VAL B   7      13.585  96.736  62.745  1.00  0.00    -0.646 OA
ENDBRANCH  73  77
ENDBRANCH  70  73
ENDBRANCH  57  69
ENDBRANCH  55  57
ENDBRANCH  48  53
ENDBRANCH  46  48
ENDBRANCH   1  44
TORSDOF 30
ENDMDL
MODEL 4
REMARK VINA RESULT:      -6.2      1.998      4.127
REMARK  30 active torsions:
REMARK  status: ('A' for Active; 'I' for Inactive)
REMARK    1  A    between atoms: N_1  and  CA_2 
REMARK    2  A    between atoms: CA_2  and  CB_5 
REMARK    3  A    between atoms: CA_2  and  C_3 
REMARK       I    between atoms: C_3  and  N_14 
REMARK    4  A    between atoms: CB_5  and  CG_6 
REMARK    5  A    between atoms: CG_6  and  CD_7 
REMARK    6  A    between atoms: CD_7  and  CE_8 
REMARK    7  A    between atoms: CE_8  and  NZ_9 
REMARK    8  A    between atoms: N_14  and  CA_15 
REMARK    9  A    between atoms: CA_15  and  CB_18 
REMARK   10  A    between atoms: CA_15  and  C_16 
REMARK       I    between atoms: C_16  and  N_22 
REMARK   11  A    between atoms: CB_18  and  SG_19 
REMARK   12  A    between atoms: N_22  and  CA_23 
REMARK   13  A    between atoms: CA_23  and  CB_26 
REMARK   14  A    between atoms: CA_23  and  C_24 
REMARK       I    between atoms: C_24  and  N_34 
REMARK   15  A    between atoms: CB_26  and  CG_27 
REMARK   16  A    between atoms: N_34  and  CA_35 
REMARK   17  A    between atoms: CA_35  and  CB_38 
REMARK   18  A    between atoms: CA_35  and  C_36 
REMARK       I    between atoms: C_36  and  N_52 
REMARK   19  A    between atoms: CB_38  and  CG_39 
REMARK   20  A    between atoms: CA_46  and  N_52 
REMARK   21  A    between atoms: CA_46  and  CB_48 
REMARK   22  A    between atoms: CA_46  and  C_47 
REMARK       I    between atoms: C_47  and  N_68 
REMARK   23  A    between atoms: CB_48  and  OG1_54 
REMARK   24  A    between atoms: CA_55  and  CB_57 
REMARK   25  A    between atoms: CA_55  and  N_68 
REMARK   26  A    between atoms: CA_55  and  C_56 
REMARK       I    between atoms: C_56  and  N_77 
REMARK   27  A    between atoms: CB_57  and  CG_58 
REMARK   28  A    between atoms: CA_71  and  N_77 
REMARK   29  A    between atoms: CA_71  and  CB_73 
REMARK   30  A    between atoms: CA_71  and  C_72 
ROOT
ATOM      1  CA  PHE B   4       5.594  87.819  69.420  1.00  0.00     0.180 C 
ENDROOT
BRANCH   1   2
ATOM      2  N   PHE B   4       4.590  88.563  68.667  1.00  0.00    -0.346 N 
ATOM      3  C   PHE B   3       3.301  88.253  68.738  1.00  0.00     0.241 C 
ATOM      4  O   PHE B   3       2.890  87.327  69.455  1.00  0.00    -0.271 OA
ATOM      5  H   PHE B   4       4.874  89.310  68.096  1.00  0.00     0.163 HD
BRANCH   3   6
ATOM      6  CA  PHE B   3       2.329  89.088  67.938  1.00  0.00     0.180 C 
BRANCH   6   7
ATOM      7  N   PHE B   3       1.865  88.365  66.759  1.00  0.00    -0.346 N 
ATOM      8  H   PHE B   3       1.162  87.692  66.856  1.00  0.00     0.163 HD
ATOM      9  C   CYS B   2       2.383  88.601  65.539  1.00  0.00     0.241 C 
ATOM     10  O   CYS B   2       3.263  89.436  65.348  1.00  0.00    -0.271 OA
BRANCH   9  11
ATOM     11  CA  CYS B   2       1.841  87.747  64.416  1.00  0.00     0.185 C 
BRANCH  11  12
ATOM     12  CB  CYS B   2       0.937  86.609  64.926  1.00  0.00     0.105 C 
BRANCH  12  13
ATOM     13  SG  CYS B   2       1.860  85.058  65.034  1.00  0.00    -0.180 SA
ATOM     14  HG  CYS B   2       2.742  85.461  65.945  1.00  0.00     0.101 HD
ENDBRANCH  12  13
ENDBRANCH  11  12
BRANCH  11  15
ATOM     15  N   CYS B   2       2.926  87.163  63.633  1.00  0.00    -0.345 N 
ATOM     16  H   CYS B   2       3.666  86.714  64.098  1.00  0.00     0.163 HD
ATOM     17  C   LYS B   1       2.937  87.225  62.298  1.00  0.00     0.254 C 
ATOM     18  O   LYS B   1       2.010  87.730  61.657  1.00  0.00    -0.271 OA
BRANCH  17  19
ATOM     19  CA  LYS B   1       4.127  86.598  61.610  1.00  0.00     0.350 C 
BRANCH  19  20
ATOM     20  N   LYS B   1       4.080  85.142  61.708  1.00  0.00     0.312 N 
ATOM     21  H   LYS B   1       5.067  84.745  61.614  1.00  0.00     0.359 HD
ENDBRANCH  19  20
BRANCH  19  22
ATOM     22  CB  LYS B   1       4.187  87.014  60.115  1.00  0.00     0.048 C 
BRANCH  22  23
ATOM     23  CG  LYS B   1       5.443  86.485  59.379  1.00  0.00     0.004 C 
BRANCH  23  24
ATOM     24  CD  LYS B   1       6.778  86.914  59.993  1.00  0.00     0.027 C 
BRANCH  24  25
ATOM     25  CE  LYS B   1       7.465  87.920  59.060  1.00  0.00     0.229 C 
BRANCH  25  26
ATOM     26  NZ  LYS B   1       7.775  89.150  59.808  1.00  0.00    -0.079 N 
ATOM     27  HZ3 LYS B   1       8.336  88.868  60.600  1.00  0.00     0.274 HD
ATOM     28  HZ2 LYS B   1       6.920  89.624  60.118  1.00  0.00     0.274 HD
ATOM     29  HZ1 LYS B   1       8.274  89.821  59.212  1.00  0.00     0.274 HD
ENDBRANCH  25  26
ENDBRANCH  24  25
ENDBRANCH  23  24
ENDBRANCH  22  23
ENDBRANCH  19  22
ENDBRANCH  17  19
ENDBRANCH  11  15
ENDBRANCH   9  11
ENDBRANCH   6   7
BRANCH   6  30
ATOM     30  CB  PHE B   3       1.119  89.460  68.848  1.00  0.00     0.073 C 
BRANCH  30  31
ATOM     31  CG  PHE B   3       0.720  90.944  68.884  1.00  0.00    -0.056 A 
ATOM     32  CD2 PHE B   3       0.898  91.704  70.042  1.00  0.00     0.007 A 
ATOM     33  CE2 PHE B   3       0.597  93.064  70.039  1.00  0.00     0.001 A 
ATOM     34  CZ  PHE B   3       0.123  93.669  68.876  1.00  0.00     0.000 A 
ATOM     35  CE1 PHE B   3      -0.057  92.916  67.718  1.00  0.00     0.001 A 
ATOM     36  CD1 PHE B   3       0.232  91.557  67.724  1.00  0.00     0.007 A 
ENDBRANCH  30  31
ENDBRANCH   6  30
ENDBRANCH   3   6
ENDBRANCH   1   2
BRANCH   1  37
ATOM     37  CB  PHE B   4       6.076  86.586  68.597  1.00  0.00     0.073 C 
BRANCH  37  38
ATOM     38  CG  PHE B   4       6.476  85.339  69.400  1.00  0.00    -0.056 A 
ATOM     39  CD1 PHE B   4       5.495  84.613  70.085  1.00  0.00     0.007 A 
ATOM     40  CE1 PHE B   4       5.852  83.531  70.881  1.00  0.00     0.001 A 
ATOM     41  CZ  PHE B   4       7.189  83.156  70.986  1.00  0.00     0.000 A 
ATOM     42  CE2 PHE B   4       8.172  83.867  70.298  1.00  0.00     0.001 A 
ATOM     43  CD2 PHE B   4       7.815  84.957  69.508  1.00  0.00     0.007 A 
ENDBRANCH  37  38
ENDBRANCH   1  37
BRANCH   1  44
ATOM     44  C   PHE B   4       6.789  88.688  69.738  1.00  0.00     0.241 C 
ATOM     45  O   PHE B   4       6.786  89.472  70.689  1.00  0.00    -0.271 OA
ATOM     46  N   THR B   5       7.848  88.544  68.933  1.00  7.70    -0.344 N 
ATOM     47  H   THR B   5       7.793  87.906  68.191  1.00  0.23     0.163 HD
BRANCH  46  48
ATOM     48  CA  THR B   5       9.078  89.308  69.121  1.00  7.88     0.205 C 
BRANCH  48  49
ATOM     49  CB  THR B   5      10.284  88.369  69.170  1.00  4.05     0.146 C 
ATOM     50  CG2 THR B   5      10.411  87.629  70.484  1.00  3.72     0.042 C 
BRANCH  49  51
ATOM     51  OG1 THR B   5      10.207  87.401  68.139  1.00  7.31    -0.393 OA
ATOM     52  HG1 THR B   5      10.356  86.528  68.508  1.00  0.23     0.210 HD
ENDBRANCH  49  51
ENDBRANCH  48  49
BRANCH  48  53
ATOM     53  C   THR B   5       9.256  90.325  67.998  1.00  7.05     0.243 C 
ATOM     54  O   THR B   5       8.380  91.154  67.754  1.00  6.06    -0.271 OA
ATOM     55  N   TRP B   6      10.395  90.257  67.318  1.00  0.00    -0.346 N 
ATOM     56  H   TRP B   6      11.057  89.575  67.559  1.00  0.23     0.163 HD
BRANCH  55  57
ATOM     57  CA  TRP B   6      10.688  91.174  66.224  1.00  0.00     0.181 C 
BRANCH  57  58
ATOM     58  CB  TRP B   6      12.196  91.409  66.121  1.00  0.00     0.075 C 
BRANCH  58  59
ATOM     59  CG  TRP B   6      12.547  92.577  65.251  1.00  0.00    -0.028 A 
ATOM     60  CD2 TRP B   6      13.631  92.654  64.317  1.00  0.00    -0.002 A 
ATOM     61  CE3 TRP B   6      14.643  91.771  63.932  1.00  0.00     0.014 A 
ATOM     62  CE2 TRP B   6      13.576  93.927  63.719  1.00  0.00     0.042 A 
ATOM     63  CZ3 TRP B   6      15.554  92.180  62.974  1.00  0.00     0.001 A 
ATOM     64  CH2 TRP B   6      15.475  93.453  62.396  1.00  0.00     0.002 A 
ATOM     65  CZ2 TRP B   6      14.494  94.336  62.756  1.00  0.00     0.030 A 
ATOM     66  NE1 TRP B   6      12.508  94.592  64.263  1.00  0.00    -0.365 N 
ATOM     67  CD1 TRP B   6      11.896  93.774  65.182  1.00  0.00     0.096 A 
ATOM     68  HE1 TRP B   6      12.226  95.503  64.034  1.00  0.23     0.165 HD
ENDBRANCH  58  59
ENDBRANCH  57  58
BRANCH  57  69
ATOM     69  C   TRP B   6      10.148  90.637  64.903  1.00  0.00     0.241 C 
ATOM     70  N   VAL B   7       8.914  91.013  64.580  1.00  6.11    -0.344 N 
ATOM     71  H   VAL B   7       8.421  91.602  65.187  1.00  0.23     0.163 HD
ATOM     72  O   TRP B   6      10.832  89.897  64.196  1.00  0.00    -0.271 OA
BRANCH  70  73
ATOM     73  CA  VAL B   7       8.277  90.569  63.347  1.00  5.65     0.189 C 
BRANCH  73  74
ATOM     74  CB  VAL B   7       7.172  89.532  63.633  1.00  1.15     0.010 C 
ATOM     75  CG1 VAL B   7       7.669  88.125  63.333  1.00  4.96     0.012 C 
ATOM     76  CG2 VAL B   7       6.693  89.640  65.073  1.00  9.83     0.012 C 
ENDBRANCH  73  74
BRANCH  73  77
ATOM     77  C   VAL B   7       7.672  91.744  62.584  1.00  4.44     0.197 C 
ATOM     78  O   VAL B   7       8.352  92.786  62.474  1.00  0.00    -0.646 OA
ATOM     79  OXT VAL B   7       6.527  91.614  62.107  1.00  0.00    -0.646 OA
ENDBRANCH  73  77
ENDBRANCH  70  73
ENDBRANCH  57  69
ENDBRANCH  55  57
ENDBRANCH  48  53
ENDBRANCH  46  48
ENDBRANCH   1  44
TORSDOF 30
ENDMDL
MODEL 5
REMARK VINA RESULT:      -6.2      3.470      6.353
REMARK  30 active torsions:
REMARK  status: ('A' for Active; 'I' for Inactive)
REMARK    1  A    between atoms: N_1  and  CA_2 
REMARK    2  A    between atoms: CA_2  and  CB_5 
REMARK    3  A    between atoms: CA_2  and  C_3 
REMARK       I    between atoms: C_3  and  N_14 
REMARK    4  A    between atoms: CB_5  and  CG_6 
REMARK    5  A    between atoms: CG_6  and  CD_7 
REMARK    6  A    between atoms: CD_7  and  CE_8 
REMARK    7  A    between atoms: CE_8  and  NZ_9 
REMARK    8  A    between atoms: N_14  and  CA_15 
REMARK    9  A    between atoms: CA_15  and  CB_18 
REMARK   10  A    between atoms: CA_15  and  C_16 
REMARK       I    between atoms: C_16  and  N_22 
REMARK   11  A    between atoms: CB_18  and  SG_19 
REMARK   12  A    between atoms: N_22  and  CA_23 
REMARK   13  A    between atoms: CA_23  and  CB_26 
REMARK   14  A    between atoms: CA_23  and  C_24 
REMARK       I    between atoms: C_24  and  N_34 
REMARK   15  A    between atoms: CB_26  and  CG_27 
REMARK   16  A    between atoms: N_34  and  CA_35 
REMARK   17  A    between atoms: CA_35  and  CB_38 
REMARK   18  A    between atoms: CA_35  and  C_36 
REMARK       I    between atoms: C_36  and  N_52 
REMARK   19  A    between atoms: CB_38  and  CG_39 
REMARK   20  A    between atoms: CA_46  and  N_52 
REMARK   21  A    between atoms: CA_46  and  CB_48 
REMARK   22  A    between atoms: CA_46  and  C_47 
REMARK       I    between atoms: C_47  and  N_68 
REMARK   23  A    between atoms: CB_48  and  OG1_54 
REMARK   24  A    between atoms: CA_55  and  CB_57 
REMARK   25  A    between atoms: CA_55  and  N_68 
REMARK   26  A    between atoms: CA_55  and  C_56 
REMARK       I    between atoms: C_56  and  N_77 
REMARK   27  A    between atoms: CB_57  and  CG_58 
REMARK   28  A    between atoms: CA_71  and  N_77 
REMARK   29  A    between atoms: CA_71  and  CB_73 
REMARK   30  A    between atoms: CA_71  and  C_72 
ROOT
ATOM      1  CA  PHE B   4       8.552  88.219  65.681  1.00  0.00     0.180 C 
ENDROOT
BRANCH   1   2
ATOM      2  N   PHE B   4       8.491  88.229  64.222  1.00  0.00    -0.346 N 
ATOM      3  C   PHE B   3       7.398  88.619  63.578  1.00  0.00     0.241 C 
ATOM      4  O   PHE B   3       6.384  89.003  64.184  1.00  0.00    -0.271 OA
ATOM      5  H   PHE B   4       9.277  87.942  63.707  1.00  0.00     0.163 HD
BRANCH   3   6
ATOM      6  CA  PHE B   3       7.429  88.614  62.068  1.00  0.00     0.180 C 
BRANCH   6   7
ATOM      7  N   PHE B   3       6.643  87.508  61.532  1.00  0.00    -0.346 N 
ATOM      8  H   PHE B   3       5.795  87.273  61.958  1.00  0.00     0.163 HD
ATOM      9  C   CYS B   2       7.058  86.802  60.464  1.00  0.00     0.241 C 
ATOM     10  O   CYS B   2       8.109  87.049  59.880  1.00  0.00    -0.271 OA
BRANCH   9  11
ATOM     11  CA  CYS B   2       6.167  85.655  60.045  1.00  0.00     0.185 C 
BRANCH  11  12
ATOM     12  CB  CYS B   2       5.958  85.599  58.519  1.00  0.00     0.105 C 
BRANCH  12  13
ATOM     13  SG  CYS B   2       7.314  84.712  57.719  1.00  0.00    -0.180 SA
ATOM     14  HG  CYS B   2       6.870  83.483  57.971  1.00  0.00     0.101 HD
ENDBRANCH  12  13
ENDBRANCH  11  12
BRANCH  11  15
ATOM     15  N   CYS B   2       4.860  85.747  60.689  1.00  0.00    -0.345 N 
ATOM     16  H   CYS B   2       4.280  86.516  60.494  1.00  0.00     0.163 HD
ATOM     17  C   LYS B   1       4.432  84.808  61.539  1.00  0.00     0.254 C 
ATOM     18  O   LYS B   1       5.092  83.792  61.782  1.00  0.00    -0.271 OA
BRANCH  17  19
ATOM     19  CA  LYS B   1       3.069  85.032  62.151  1.00  0.00     0.350 C 
BRANCH  19  20
ATOM     20  N   LYS B   1       2.936  84.307  63.411  1.00  0.00     0.312 N 
ATOM     21  H   LYS B   1       1.917  84.325  63.728  1.00  0.00     0.359 HD
ENDBRANCH  19  20
BRANCH  19  22
ATOM     22  CB  LYS B   1       2.812  86.544  62.395  1.00  0.00     0.048 C 
BRANCH  22  23
ATOM     23  CG  LYS B   1       2.231  86.852  63.798  1.00  0.00     0.004 C 
BRANCH  23  24
ATOM     24  CD  LYS B   1       1.628  88.251  63.952  1.00  0.00     0.027 C 
BRANCH  24  25
ATOM     25  CE  LYS B   1       2.231  88.928  65.190  1.00  0.00     0.229 C 
BRANCH  25  26
ATOM     26  NZ  LYS B   1       3.645  88.536  65.323  1.00  0.00    -0.079 N 
ATOM     27  HZ3 LYS B   1       3.666  87.528  65.273  1.00  0.00     0.274 HD
ATOM     28  HZ2 LYS B   1       4.043  88.866  66.208  1.00  0.00     0.274 HD
ATOM     29  HZ1 LYS B   1       4.211  88.963  64.579  1.00  0.00     0.274 HD
ENDBRANCH  25  26
ENDBRANCH  24  25
ENDBRANCH  23  24
ENDBRANCH  22  23
ENDBRANCH  19  22
ENDBRANCH  17  19
ENDBRANCH  11  15
ENDBRANCH   9  11
ENDBRANCH   6   7
BRANCH   6  30
ATOM     30  CB  PHE B   3       6.865  89.972  61.550  1.00  0.00     0.073 C 
BRANCH  30  31
ATOM     31  CG  PHE B   3       5.653  89.895  60.608  1.00  0.00    -0.056 A 
ATOM     32  CD2 PHE B   3       5.803  90.083  59.232  1.00  0.00     0.007 A 
ATOM     33  CE2 PHE B   3       4.709  89.941  58.383  1.00  0.00     0.001 A 
ATOM     34  CZ  PHE B   3       3.461  89.605  58.906  1.00  0.00     0.000 A 
ATOM     35  CE1 PHE B   3       3.304  89.417  60.277  1.00  0.00     0.001 A 
ATOM     36  CD1 PHE B   3       4.394  89.570  61.126  1.00  0.00     0.007 A 
ENDBRANCH  30  31
ENDBRANCH   6  30
ENDBRANCH   3   6
ENDBRANCH   1   2
BRANCH   1  37
ATOM     37  CB  PHE B   4       8.973  86.807  66.189  1.00  0.00     0.073 C 
BRANCH  37  38
ATOM     38  CG  PHE B   4       8.251  86.285  67.441  1.00  0.00    -0.056 A 
ATOM     39  CD1 PHE B   4       8.603  85.039  67.973  1.00  0.00     0.007 A 
ATOM     40  CE1 PHE B   4       7.905  84.517  69.056  1.00  0.00     0.001 A 
ATOM     41  CZ  PHE B   4       6.861  85.242  69.625  1.00  0.00     0.000 A 
ATOM     42  CE2 PHE B   4       6.511  86.489  69.108  1.00  0.00     0.001 A 
ATOM     43  CD2 PHE B   4       7.204  87.008  68.016  1.00  0.00     0.007 A 
ENDBRANCH  37  38
ENDBRANCH   1  37
BRANCH   1  44
ATOM     44  C   PHE B   4       9.547  89.236  66.189  1.00  0.00     0.241 C 
ATOM     45  O   PHE B   4       9.393  89.812  67.268  1.00  0.00    -0.271 OA
ATOM     46  N   THR B   5      10.608  89.461  65.404  1.00  7.70    -0.344 N 
ATOM     47  H   THR B   5      10.677  88.974  64.556  1.00  0.23     0.163 HD
BRANCH  46  48
ATOM     48  CA  THR B   5      11.658  90.408  65.767  1.00  7.88     0.205 C 
BRANCH  48  49
ATOM     49  CB  THR B   5      12.899  90.180  64.903  1.00  4.05     0.146 C 
ATOM     50  CG2 THR B   5      12.636  90.349  63.423  1.00  3.72     0.042 C 
BRANCH  49  51
ATOM     51  OG1 THR B   5      13.931  91.082  65.261  1.00  7.31    -0.393 OA
ATOM     52  HG1 THR B   5      14.053  91.724  64.558  1.00  0.23     0.210 HD
ENDBRANCH  49  51
ENDBRANCH  48  49
BRANCH  48  53
ATOM     53  C   THR B   5      11.167  91.843  65.604  1.00  7.05     0.243 C 
ATOM     54  O   THR B   5      11.725  92.770  66.190  1.00  6.06    -0.271 OA
ATOM     55  N   TRP B   6      10.122  92.020  64.803  1.00  0.00    -0.346 N 
ATOM     56  H   TRP B   6       9.720  91.242  64.362  1.00  0.23     0.163 HD
BRANCH  55  57
ATOM     57  CA  TRP B   6       9.561  93.343  64.561  1.00  0.00     0.181 C 
BRANCH  57  58
ATOM     58  CB  TRP B   6       8.553  93.696  65.656  1.00  0.00     0.075 C 
BRANCH  58  59
ATOM     59  CG  TRP B   6       7.274  92.923  65.544  1.00  0.00    -0.028 A 
ATOM     60  CD2 TRP B   6       6.373  92.914  64.430  1.00  0.00    -0.002 A 
ATOM     61  CE3 TRP B   6       6.359  93.555  63.189  1.00  0.00     0.014 A 
ATOM     62  CE2 TRP B   6       5.314  92.046  64.758  1.00  0.00     0.042 A 
ATOM     63  CZ3 TRP B   6       5.305  93.314  62.327  1.00  0.00     0.001 A 
ATOM     64  CH2 TRP B   6       4.265  92.446  62.680  1.00  0.00     0.002 A 
ATOM     65  CZ2 TRP B   6       4.255  91.804  63.889  1.00  0.00     0.030 A 
ATOM     66  NE1 TRP B   6       5.561  91.551  66.013  1.00  0.00    -0.365 N 
ATOM     67  CD1 TRP B   6       6.739  92.083  66.477  1.00  0.00     0.096 A 
ATOM     68  HE1 TRP B   6       4.989  90.921  66.500  1.00  0.23     0.165 HD
ENDBRANCH  58  59
ENDBRANCH  57  58
BRANCH  57  69
ATOM     69  C   TRP B   6      10.660  94.398  64.498  1.00  0.00     0.241 C 
ATOM     70  N   VAL B   7      11.663  94.148  63.662  1.00  6.11    -0.344 N 
ATOM     71  H   VAL B   7      11.652  93.321  63.137  1.00  0.23     0.163 HD
ATOM     72  O   TRP B   6      10.602  95.413  65.194  1.00  0.00    -0.271 OA
BRANCH  70  73
ATOM     73  CA  VAL B   7      12.780  95.072  63.507  1.00  5.65     0.189 C 
BRANCH  73  74
ATOM     74  CB  VAL B   7      14.130  94.332  63.586  1.00  1.15     0.010 C 
ATOM     75  CG1 VAL B   7      14.254  93.326  62.451  1.00  4.96     0.012 C 
ATOM     76  CG2 VAL B   7      15.286  95.321  63.559  1.00  9.83     0.012 C 
ENDBRANCH  73  74
BRANCH  73  77
ATOM     77  C   VAL B   7      12.697  95.819  62.179  1.00  4.44     0.197 C 
ATOM     78  O   VAL B   7      13.538  96.714  61.954  1.00  0.00    -0.646 OA
ATOM     79  OXT VAL B   7      11.793  95.504  61.379  1.00  0.00    -0.646 OA
ENDBRANCH  73  77
ENDBRANCH  70  73
ENDBRANCH  57  69
ENDBRANCH  55  57
ENDBRANCH  48  53
ENDBRANCH  46  48
ENDBRANCH   1  44
TORSDOF 30
ENDMDL
MODEL 6
REMARK VINA RESULT:      -6.0      3.272      7.161
REMARK  30 active torsions:
REMARK  status: ('A' for Active; 'I' for Inactive)
REMARK    1  A    between atoms: N_1  and  CA_2 
REMARK    2  A    between atoms: CA_2  and  CB_5 
REMARK    3  A    between atoms: CA_2  and  C_3 
REMARK       I    between atoms: C_3  and  N_14 
REMARK    4  A    between atoms: CB_5  and  CG_6 
REMARK    5  A    between atoms: CG_6  and  CD_7 
REMARK    6  A    between atoms: CD_7  and  CE_8 
REMARK    7  A    between atoms: CE_8  and  NZ_9 
REMARK    8  A    between atoms: N_14  and  CA_15 
REMARK    9  A    between atoms: CA_15  and  CB_18 
REMARK   10  A    between atoms: CA_15  and  C_16 
REMARK       I    between atoms: C_16  and  N_22 
REMARK   11  A    between atoms: CB_18  and  SG_19 
REMARK   12  A    between atoms: N_22  and  CA_23 
REMARK   13  A    between atoms: CA_23  and  CB_26 
REMARK   14  A    between atoms: CA_23  and  C_24 
REMARK       I    between atoms: C_24  and  N_34 
REMARK   15  A    between atoms: CB_26  and  CG_27 
REMARK   16  A    between atoms: N_34  and  CA_35 
REMARK   17  A    between atoms: CA_35  and  CB_38 
REMARK   18  A    between atoms: CA_35  and  C_36 
REMARK       I    between atoms: C_36  and  N_52 
REMARK   19  A    between atoms: CB_38  and  CG_39 
REMARK   20  A    between atoms: CA_46  and  N_52 
REMARK   21  A    between atoms: CA_46  and  CB_48 
REMARK   22  A    between atoms: CA_46  and  C_47 
REMARK       I    between atoms: C_47  and  N_68 
REMARK   23  A    between atoms: CB_48  and  OG1_54 
REMARK   24  A    between atoms: CA_55  and  CB_57 
REMARK   25  A    between atoms: CA_55  and  N_68 
REMARK   26  A    between atoms: CA_55  and  C_56 
REMARK       I    between atoms: C_56  and  N_77 
REMARK   27  A    between atoms: CB_57  and  CG_58 
REMARK   28  A    between atoms: CA_71  and  N_77 
REMARK   29  A    between atoms: CA_71  and  CB_73 
REMARK   30  A    between atoms: CA_71  and  C_72 
ROOT
ATOM      1  CA  PHE B   4       7.391  88.303  64.561  1.00  0.00     0.180 C 
ENDROOT
BRANCH   1   2
ATOM      2  N   PHE B   4       7.313  87.842  63.178  1.00  0.00    -0.346 N 
ATOM      3  C   PHE B   3       6.233  88.060  62.436  1.00  0.00     0.241 C 
ATOM      4  O   PHE B   3       5.250  88.675  62.879  1.00  0.00    -0.271 OA
ATOM      5  H   PHE B   4       8.075  87.361  62.788  1.00  0.00     0.163 HD
BRANCH   3   6
ATOM      6  CA  PHE B   3       6.245  87.564  61.010  1.00  0.00     0.180 C 
BRANCH   6   7
ATOM      7  N   PHE B   3       4.901  87.199  60.572  1.00  0.00    -0.346 N 
ATOM      8  H   PHE B   3       4.321  87.886  60.188  1.00  0.00     0.163 HD
ATOM      9  C   CYS B   2       4.442  85.939  60.684  1.00  0.00     0.241 C 
ATOM     10  O   CYS B   2       5.122  85.030  61.152  1.00  0.00    -0.271 OA
BRANCH   9  11
ATOM     11  CA  CYS B   2       3.017  85.714  60.233  1.00  0.00     0.185 C 
BRANCH  11  12
ATOM     12  CB  CYS B   2       2.839  85.924  58.717  1.00  0.00     0.105 C 
BRANCH  12  13
ATOM     13  SG  CYS B   2       1.702  87.290  58.389  1.00  0.00    -0.180 SA
ATOM     14  HG  CYS B   2       1.926  87.372  57.080  1.00  0.00     0.101 HD
ENDBRANCH  12  13
ENDBRANCH  11  12
BRANCH  11  15
ATOM     15  N   CYS B   2       2.099  86.607  60.936  1.00  0.00    -0.345 N 
ATOM     16  H   CYS B   2       1.930  87.505  60.573  1.00  0.00     0.163 HD
ATOM     17  C   LYS B   1       1.485  86.233  62.062  1.00  0.00     0.254 C 
ATOM     18  O   LYS B   1       1.618  85.100  62.537  1.00  0.00    -0.271 OA
BRANCH  17  19
ATOM     19  CA  LYS B   1       0.576  87.258  62.699  1.00  0.00     0.350 C 
BRANCH  19  20
ATOM     20  N   LYS B   1       0.023  86.758  63.955  1.00  0.00     0.312 N 
ATOM     21  H   LYS B   1      -0.898  87.255  64.163  1.00  0.00     0.359 HD
ENDBRANCH  19  20
BRANCH  19  22
ATOM     22  CB  LYS B   1       1.336  88.587  62.960  1.00  0.00     0.048 C 
BRANCH  22  23
ATOM     23  CG  LYS B   1       2.000  88.652  64.358  1.00  0.00     0.004 C 
BRANCH  23  24
ATOM     24  CD  LYS B   1       1.783  89.966  65.114  1.00  0.00     0.027 C 
BRANCH  24  25
ATOM     25  CE  LYS B   1       3.069  90.802  65.054  1.00  0.00     0.229 C 
BRANCH  25  26
ATOM     26  NZ  LYS B   1       4.219  89.958  65.420  1.00  0.00    -0.079 N 
ATOM     27  HZ3 LYS B   1       3.897  89.340  66.151  1.00  0.00     0.274 HD
ATOM     28  HZ2 LYS B   1       5.010  90.525  65.743  1.00  0.00     0.274 HD
ATOM     29  HZ1 LYS B   1       4.558  89.434  64.605  1.00  0.00     0.274 HD
ENDBRANCH  25  26
ENDBRANCH  24  25
ENDBRANCH  23  24
ENDBRANCH  22  23
ENDBRANCH  19  22
ENDBRANCH  17  19
ENDBRANCH  11  15
ENDBRANCH   9  11
ENDBRANCH   6   7
BRANCH   6  30
ATOM     30  CB  PHE B   3       6.821  88.685  60.092  1.00  0.00     0.073 C 
BRANCH  30  31
ATOM     31  CG  PHE B   3       5.817  89.725  59.569  1.00  0.00    -0.056 A 
ATOM     32  CD2 PHE B   3       5.017  89.451  58.458  1.00  0.00     0.007 A 
ATOM     33  CE2 PHE B   3       4.062  90.375  58.039  1.00  0.00     0.001 A 
ATOM     34  CZ  PHE B   3       3.902  91.573  58.732  1.00  0.00     0.000 A 
ATOM     35  CE1 PHE B   3       4.698  91.853  59.841  1.00  0.00     0.001 A 
ATOM     36  CD1 PHE B   3       5.658  90.936  60.253  1.00  0.00     0.007 A 
ENDBRANCH  30  31
ENDBRANCH   6  30
ENDBRANCH   3   6
ENDBRANCH   1   2
BRANCH   1  37
ATOM     37  CB  PHE B   4       8.558  87.581  65.300  1.00  0.00     0.073 C 
BRANCH  37  38
ATOM     38  CG  PHE B   4       8.197  86.851  66.603  1.00  0.00    -0.056 A 
ATOM     39  CD1 PHE B   4       7.127  87.310  67.379  1.00  0.00     0.007 A 
ATOM     40  CE1 PHE B   4       6.838  86.712  68.600  1.00  0.00     0.001 A 
ATOM     41  CZ  PHE B   4       7.607  85.640  69.047  1.00  0.00     0.000 A 
ATOM     42  CE2 PHE B   4       8.668  85.168  68.275  1.00  0.00     0.001 A 
ATOM     43  CD2 PHE B   4       8.964  85.775  67.056  1.00  0.00     0.007 A 
ENDBRANCH  37  38
ENDBRANCH   1  37
BRANCH   1  44
ATOM     44  C   PHE B   4       7.625  89.794  64.623  1.00  0.00     0.241 C 
ATOM     45  O   PHE B   4       7.356  90.452  65.630  1.00  0.00    -0.271 OA
ATOM     46  N   THR B   5       8.152  90.351  63.525  1.00  7.70    -0.344 N 
ATOM     47  H   THR B   5       8.345  89.778  62.753  1.00  0.23     0.163 HD
BRANCH  46  48
ATOM     48  CA  THR B   5       8.443  91.779  63.440  1.00  7.88     0.205 C 
BRANCH  48  49
ATOM     49  CB  THR B   5       7.144  92.583  63.378  1.00  4.05     0.146 C 
ATOM     50  CG2 THR B   5       7.017  93.419  62.123  1.00  3.72     0.042 C 
BRANCH  49  51
ATOM     51  OG1 THR B   5       6.019  91.723  63.436  1.00  7.31    -0.393 OA
ATOM     52  HG1 THR B   5       6.194  91.009  64.052  1.00  0.23     0.210 HD
ENDBRANCH  49  51
ENDBRANCH  48  49
BRANCH  48  53
ATOM     53  C   THR B   5       9.278  92.229  64.635  1.00  7.05     0.243 C 
ATOM     54  O   THR B   5       9.264  93.403  65.006  1.00  6.06    -0.271 OA
ATOM     55  N   TRP B   6      10.001  91.290  65.235  1.00  0.00    -0.346 N 
ATOM     56  H   TRP B   6       9.970  90.372  64.895  1.00  0.23     0.163 HD
BRANCH  55  57
ATOM     57  CA  TRP B   6      10.837  91.592  66.390  1.00  0.00     0.181 C 
BRANCH  57  58
ATOM     58  CB  TRP B   6      10.959  90.361  67.289  1.00  0.00     0.075 C 
BRANCH  58  59
ATOM     59  CG  TRP B   6       9.847  90.255  68.288  1.00  0.00    -0.028 A 
ATOM     60  CD2 TRP B   6       9.732  89.291  69.342  1.00  0.00    -0.002 A 
ATOM     61  CE3 TRP B   6      10.521  88.219  69.766  1.00  0.00     0.014 A 
ATOM     62  CE2 TRP B   6       8.539  89.572  70.034  1.00  0.00     0.042 A 
ATOM     63  CZ3 TRP B   6      10.101  87.471  70.852  1.00  0.00     0.001 A 
ATOM     64  CH2 TRP B   6       8.909  87.774  71.521  1.00  0.00     0.002 A 
ATOM     65  CZ2 TRP B   6       8.118  88.819  71.127  1.00  0.00     0.030 A 
ATOM     66  NE1 TRP B   6       7.956  90.656  69.430  1.00  0.00    -0.365 N 
ATOM     67  CD1 TRP B   6       8.749  91.060  68.382  1.00  0.00     0.096 A 
ATOM     68  HE1 TRP B   6       7.112  91.075  69.700  1.00  0.23     0.165 HD
ENDBRANCH  58  59
ENDBRANCH  57  58
BRANCH  57  69
ATOM     69  C   TRP B   6      12.220  92.063  65.953  1.00  0.00     0.241 C 
ATOM     70  N   VAL B   7      12.279  92.704  64.790  1.00  6.11    -0.344 N 
ATOM     71  H   VAL B   7      11.454  92.843  64.279  1.00  0.23     0.163 HD
ATOM     72  O   TRP B   6      13.210  91.847  66.652  1.00  0.00    -0.271 OA
BRANCH  70  73
ATOM     73  CA  VAL B   7      13.538  93.204  64.254  1.00  5.65     0.189 C 
BRANCH  73  74
ATOM     74  CB  VAL B   7      14.156  92.205  63.257  1.00  1.15     0.010 C 
ATOM     75  CG1 VAL B   7      15.593  91.884  63.643  1.00  4.96     0.012 C 
ATOM     76  CG2 VAL B   7      13.321  90.935  63.181  1.00  9.83     0.012 C 
ENDBRANCH  73  74
BRANCH  73  77
ATOM     77  C   VAL B   7      13.346  94.549  63.558  1.00  4.44     0.197 C 
ATOM     78  O   VAL B   7      12.261  94.761  62.978  1.00  0.00    -0.646 OA
ATOM     79  OXT VAL B   7      14.280  95.375  63.597  1.00  0.00    -0.646 OA
ENDBRANCH  73  77
ENDBRANCH  70  73
ENDBRANCH  57  69
ENDBRANCH  55  57
ENDBRANCH  48  53
ENDBRANCH  46  48
ENDBRANCH   1  44
TORSDOF 30
ENDMDL
MODEL 7
REMARK VINA RESULT:      -5.7      4.623      7.672
REMARK  30 active torsions:
REMARK  status: ('A' for Active; 'I' for Inactive)
REMARK    1  A    between atoms: N_1  and  CA_2 
REMARK    2  A    between atoms: CA_2  and  CB_5 
REMARK    3  A    between atoms: CA_2  and  C_3 
REMARK       I    between atoms: C_3  and  N_14 
REMARK    4  A    between atoms: CB_5  and  CG_6 
REMARK    5  A    between atoms: CG_6  and  CD_7 
REMARK    6  A    between atoms: CD_7  and  CE_8 
REMARK    7  A    between atoms: CE_8  and  NZ_9 
REMARK    8  A    between atoms: N_14  and  CA_15 
REMARK    9  A    between atoms: CA_15  and  CB_18 
REMARK   10  A    between atoms: CA_15  and  C_16 
REMARK       I    between atoms: C_16  and  N_22 
REMARK   11  A    between atoms: CB_18  and  SG_19 
REMARK   12  A    between atoms: N_22  and  CA_23 
REMARK   13  A    between atoms: CA_23  and  CB_26 
REMARK   14  A    between atoms: CA_23  and  C_24 
REMARK       I    between atoms: C_24  and  N_34 
REMARK   15  A    between atoms: CB_26  and  CG_27 
REMARK   16  A    between atoms: N_34  and  CA_35 
REMARK   17  A    between atoms: CA_35  and  CB_38 
REMARK   18  A    between atoms: CA_35  and  C_36 
REMARK       I    between atoms: C_36  and  N_52 
REMARK   19  A    between atoms: CB_38  and  CG_39 
REMARK   20  A    between atoms: CA_46  and  N_52 
REMARK   21  A    between atoms: CA_46  and  CB_48 
REMARK   22  A    between atoms: CA_46  and  C_47 
REMARK       I    between atoms: C_47  and  N_68 
REMARK   23  A    between atoms: CB_48  and  OG1_54 
REMARK   24  A    between atoms: CA_55  and  CB_57 
REMARK   25  A    between atoms: CA_55  and  N_68 
REMARK   26  A    between atoms: CA_55  and  C_56 
REMARK       I    between atoms: C_56  and  N_77 
REMARK   27  A    between atoms: CB_57  and  CG_58 
REMARK   28  A    between atoms: CA_71  and  N_77 
REMARK   29  A    between atoms: CA_71  and  CB_73 
REMARK   30  A    between atoms: CA_71  and  C_72 
ROOT
ATOM      1  CA  PHE B   4       7.731  91.418  64.826  1.00  0.00     0.180 C 
ENDROOT
BRANCH   1   2
ATOM      2  N   PHE B   4       7.274  91.118  63.473  1.00  0.00    -0.346 N 
ATOM      3  C   PHE B   3       6.421  90.129  63.233  1.00  0.00     0.241 C 
ATOM      4  O   PHE B   3       5.965  89.424  64.147  1.00  0.00    -0.271 OA
ATOM      5  H   PHE B   4       7.604  91.661  62.723  1.00  0.00     0.163 HD
BRANCH   3   6
ATOM      6  CA  PHE B   3       5.988  89.901  61.804  1.00  0.00     0.180 C 
BRANCH   6   7
ATOM      7  N   PHE B   3       5.881  88.475  61.512  1.00  0.00    -0.346 N 
ATOM      8  H   PHE B   3       5.260  87.926  62.031  1.00  0.00     0.163 HD
ATOM      9  C   CYS B   2       6.616  87.897  60.544  1.00  0.00     0.241 C 
ATOM     10  O   CYS B   2       7.408  88.531  59.853  1.00  0.00    -0.271 OA
BRANCH   9  11
ATOM     11  CA  CYS B   2       6.436  86.406  60.381  1.00  0.00     0.185 C 
BRANCH  11  12
ATOM     12  CB  CYS B   2       7.487  85.786  59.440  1.00  0.00     0.105 C 
BRANCH  12  13
ATOM     13  SG  CYS B   2       6.803  85.551  57.783  1.00  0.00    -0.180 SA
ATOM     14  HG  CYS B   2       7.622  86.390  57.153  1.00  0.00     0.101 HD
ENDBRANCH  12  13
ENDBRANCH  11  12
BRANCH  11  15
ATOM     15  N   CYS B   2       5.107  86.093  59.863  1.00  0.00    -0.345 N 
ATOM     16  H   CYS B   2       4.957  86.096  58.892  1.00  0.00     0.163 HD
ATOM     17  C   LYS B   1       4.090  85.803  60.679  1.00  0.00     0.254 C 
ATOM     18  O   LYS B   1       4.230  85.732  61.905  1.00  0.00    -0.271 OA
BRANCH  17  19
ATOM     19  CA  LYS B   1       2.763  85.516  60.016  1.00  0.00     0.350 C 
BRANCH  19  20
ATOM     20  N   LYS B   1       1.795  85.005  60.982  1.00  0.00     0.312 N 
ATOM     21  H   LYS B   1       1.137  85.792  61.279  1.00  0.00     0.359 HD
ENDBRANCH  19  20
BRANCH  19  22
ATOM     22  CB  LYS B   1       2.194  86.793  59.339  1.00  0.00     0.048 C 
BRANCH  22  23
ATOM     23  CG  LYS B   1       2.322  88.064  60.216  1.00  0.00     0.004 C 
BRANCH  23  24
ATOM     24  CD  LYS B   1       0.996  88.613  60.752  1.00  0.00     0.027 C 
BRANCH  24  25
ATOM     25  CE  LYS B   1       1.054  88.669  62.284  1.00  0.00     0.229 C 
BRANCH  25  26
ATOM     26  NZ  LYS B   1       2.322  88.078  62.748  1.00  0.00    -0.079 N 
ATOM     27  HZ3 LYS B   1       2.114  87.605  63.616  1.00  0.00     0.274 HD
ATOM     28  HZ2 LYS B   1       3.040  88.797  62.887  1.00  0.00     0.274 HD
ATOM     29  HZ1 LYS B   1       2.698  87.430  62.046  1.00  0.00     0.274 HD
ENDBRANCH  25  26
ENDBRANCH  24  25
ENDBRANCH  23  24
ENDBRANCH  22  23
ENDBRANCH  19  22
ENDBRANCH  17  19
ENDBRANCH  11  15
ENDBRANCH   9  11
ENDBRANCH   6   7
BRANCH   6  30
ATOM     30  CB  PHE B   3       4.613  90.599  61.578  1.00  0.00     0.073 C 
BRANCH  30  31
ATOM     31  CG  PHE B   3       4.655  92.087  61.193  1.00  0.00    -0.056 A 
ATOM     32  CD2 PHE B   3       4.481  93.080  62.159  1.00  0.00     0.007 A 
ATOM     33  CE2 PHE B   3       4.592  94.424  61.808  1.00  0.00     0.001 A 
ATOM     34  CZ  PHE B   3       4.881  94.777  60.491  1.00  0.00     0.000 A 
ATOM     35  CE1 PHE B   3       5.054  93.791  59.523  1.00  0.00     0.001 A 
ATOM     36  CD1 PHE B   3       4.933  92.450  59.871  1.00  0.00     0.007 A 
ENDBRANCH  30  31
ENDBRANCH   6  30
ENDBRANCH   3   6
ENDBRANCH   1   2
BRANCH   1  37
ATOM     37  CB  PHE B   4       8.803  90.378  65.272  1.00  0.00     0.073 C 
BRANCH  37  38
ATOM     38  CG  PHE B   4       8.874  90.067  66.775  1.00  0.00    -0.056 A 
ATOM     39  CD1 PHE B   4       7.902  90.590  67.636  1.00  0.00     0.007 A 
ATOM     40  CE1 PHE B   4       7.997  90.386  69.008  1.00  0.00     0.001 A 
ATOM     41  CZ  PHE B   4       9.055  89.645  69.528  1.00  0.00     0.000 A 
ATOM     42  CE2 PHE B   4      10.022  89.110  68.676  1.00  0.00     0.001 A 
ATOM     43  CD2 PHE B   4       9.932  89.324  67.303  1.00  0.00     0.007 A 
ENDBRANCH  37  38
ENDBRANCH   1  37
BRANCH   1  44
ATOM     44  C   PHE B   4       8.334  92.801  64.901  1.00  0.00     0.241 C 
ATOM     45  O   PHE B   4       7.816  93.700  65.567  1.00  0.00    -0.271 OA
ATOM     46  N   THR B   5       9.467  92.984  64.213  1.00  7.70    -0.344 N 
ATOM     47  H   THR B   5       9.833  92.232  63.701  1.00  0.23     0.163 HD
BRANCH  46  48
ATOM     48  CA  THR B   5      10.172  94.262  64.198  1.00  7.88     0.205 C 
BRANCH  48  49
ATOM     49  CB  THR B   5      11.271  94.276  65.261  1.00  4.05     0.146 C 
ATOM     50  CG2 THR B   5      11.604  92.899  65.794  1.00  3.72     0.042 C 
BRANCH  49  51
ATOM     51  OG1 THR B   5      12.464  94.834  64.741  1.00  7.31    -0.393 OA
ATOM     52  HG1 THR B   5      12.474  95.779  64.908  1.00  0.23     0.210 HD
ENDBRANCH  49  51
ENDBRANCH  48  49
BRANCH  48  53
ATOM     53  C   THR B   5      10.775  94.527  62.822  1.00  7.05     0.243 C 
ATOM     54  O   THR B   5      11.003  93.600  62.046  1.00  6.06    -0.271 OA
ATOM     55  N   TRP B   6      11.029  95.797  62.525  1.00  0.00    -0.346 N 
ATOM     56  H   TRP B   6      10.824  96.492  63.185  1.00  0.23     0.163 HD
BRANCH  55  57
ATOM     57  CA  TRP B   6      11.602  96.181  61.242  1.00  0.00     0.181 C 
BRANCH  57  58
ATOM     58  CB  TRP B   6      11.443  97.686  61.022  1.00  0.00     0.075 C 
BRANCH  58  59
ATOM     59  CG  TRP B   6      11.068  98.034  59.614  1.00  0.00    -0.028 A 
ATOM     60  CD2 TRP B   6      11.893  98.693  58.645  1.00  0.00    -0.002 A 
ATOM     61  CE3 TRP B   6      13.196  99.197  58.665  1.00  0.00     0.014 A 
ATOM     62  CE2 TRP B   6      11.137  98.806  57.463  1.00  0.00     0.042 A 
ATOM     63  CZ3 TRP B   6      13.697  99.790  57.519  1.00  0.00     0.001 A 
ATOM     64  CH2 TRP B   6      12.922  99.889  56.357  1.00  0.00     0.002 A 
ATOM     65  CZ2 TRP B   6      11.644  99.403  56.312  1.00  0.00     0.030 A 
ATOM     66  NE1 TRP B   6       9.911  98.243  57.702  1.00  0.00    -0.365 N 
ATOM     67  CD1 TRP B   6       9.877  97.782  58.996  1.00  0.00     0.096 A 
ATOM     68  HE1 TRP B   6       9.177  98.180  57.055  1.00  0.23     0.165 HD
ENDBRANCH  58  59
ENDBRANCH  57  58
BRANCH  57  69
ATOM     69  C   TRP B   6      13.075  95.791  61.163  1.00  0.00     0.241 C 
ATOM     70  N   VAL B   7      13.522  95.000  62.134  1.00  6.11    -0.344 N 
ATOM     71  H   VAL B   7      12.904  94.709  62.836  1.00  0.23     0.163 HD
ATOM     72  O   TRP B   6      13.788  96.201  60.247  1.00  0.00    -0.271 OA
BRANCH  70  73
ATOM     73  CA  VAL B   7      14.909  94.555  62.180  1.00  5.65     0.189 C 
BRANCH  73  74
ATOM     74  CB  VAL B   7      15.719  95.362  63.214  1.00  1.15     0.010 C 
ATOM     75  CG1 VAL B   7      14.919  96.564  63.698  1.00  4.96     0.012 C 
ATOM     76  CG2 VAL B   7      16.128  94.480  64.384  1.00  9.83     0.012 C 
ENDBRANCH  73  74
BRANCH  73  77
ATOM     77  C   VAL B   7      15.001  93.071  62.524  1.00  4.44     0.197 C 
ATOM     78  O   VAL B   7      14.073  92.562  63.188  1.00  0.00    -0.646 OA
ATOM     79  OXT VAL B   7      15.997  92.432  62.129  1.00  0.00    -0.646 OA
ENDBRANCH  73  77
ENDBRANCH  70  73
ENDBRANCH  57  69
ENDBRANCH  55  57
ENDBRANCH  48  53
ENDBRANCH  46  48
ENDBRANCH   1  44
TORSDOF 30
ENDMDL
MODEL 8
REMARK VINA RESULT:      -5.7      4.353      7.479
REMARK  30 active torsions:
REMARK  status: ('A' for Active; 'I' for Inactive)
REMARK    1  A    between atoms: N_1  and  CA_2 
REMARK    2  A    between atoms: CA_2  and  CB_5 
REMARK    3  A    between atoms: CA_2  and  C_3 
REMARK       I    between atoms: C_3  and  N_14 
REMARK    4  A    between atoms: CB_5  and  CG_6 
REMARK    5  A    between atoms: CG_6  and  CD_7 
REMARK    6  A    between atoms: CD_7  and  CE_8 
REMARK    7  A    between atoms: CE_8  and  NZ_9 
REMARK    8  A    between atoms: N_14  and  CA_15 
REMARK    9  A    between atoms: CA_15  and  CB_18 
REMARK   10  A    between atoms: CA_15  and  C_16 
REMARK       I    between atoms: C_16  and  N_22 
REMARK   11  A    between atoms: CB_18  and  SG_19 
REMARK   12  A    between atoms: N_22  and  CA_23 
REMARK   13  A    between atoms: CA_23  and  CB_26 
REMARK   14  A    between atoms: CA_23  and  C_24 
REMARK       I    between atoms: C_24  and  N_34 
REMARK   15  A    between atoms: CB_26  and  CG_27 
REMARK   16  A    between atoms: N_34  and  CA_35 
REMARK   17  A    between atoms: CA_35  and  CB_38 
REMARK   18  A    between atoms: CA_35  and  C_36 
REMARK       I    between atoms: C_36  and  N_52 
REMARK   19  A    between atoms: CB_38  and  CG_39 
REMARK   20  A    between atoms: CA_46  and  N_52 
REMARK   21  A    between atoms: CA_46  and  CB_48 
REMARK   22  A    between atoms: CA_46  and  C_47 
REMARK       I    between atoms: C_47  and  N_68 
REMARK   23  A    between atoms: CB_48  and  OG1_54 
REMARK   24  A    between atoms: CA_55  and  CB_57 
REMARK   25  A    between atoms: CA_55  and  N_68 
REMARK   26  A    between atoms: CA_55  and  C_56 
REMARK       I    between atoms: C_56  and  N_77 
REMARK   27  A    between atoms: CB_57  and  CG_58 
REMARK   28  A    between atoms: CA_71  and  N_77 
REMARK   29  A    between atoms: CA_71  and  CB_73 
REMARK   30  A    between atoms: CA_71  and  C_72 
ROOT
ATOM      1  CA  PHE B   4       7.279  91.759  65.156  1.00  0.00     0.180 C 
ENDROOT
BRANCH   1   2
ATOM      2  N   PHE B   4       6.666  91.656  63.835  1.00  0.00    -0.346 N 
ATOM      3  C   PHE B   3       5.402  91.277  63.687  1.00  0.00     0.241 C 
ATOM      4  O   PHE B   3       4.682  91.006  64.661  1.00  0.00    -0.271 OA
ATOM      5  H   PHE B   4       7.200  91.872  63.040  1.00  0.00     0.163 HD
BRANCH   3   6
ATOM      6  CA  PHE B   3       4.844  91.214  62.285  1.00  0.00     0.180 C 
BRANCH   6   7
ATOM      7  N   PHE B   3       3.702  90.308  62.217  1.00  0.00    -0.346 N 
ATOM      8  H   PHE B   3       3.317  89.962  63.045  1.00  0.00     0.163 HD
ATOM      9  C   CYS B   2       3.165  89.939  61.039  1.00  0.00     0.241 C 
ATOM     10  O   CYS B   2       3.598  90.343  59.963  1.00  0.00    -0.271 OA
BRANCH   9  11
ATOM     11  CA  CYS B   2       2.015  88.961  61.116  1.00  0.00     0.185 C 
BRANCH  11  12
ATOM     12  CB  CYS B   2       1.493  88.778  62.554  1.00  0.00     0.105 C 
BRANCH  12  13
ATOM     13  SG  CYS B   2       0.141  87.580  62.597  1.00  0.00    -0.180 SA
ATOM     14  HG  CYS B   2      -0.808  88.395  62.144  1.00  0.00     0.101 HD
ENDBRANCH  12  13
ENDBRANCH  11  12
BRANCH  11  15
ATOM     15  N   CYS B   2       2.405  87.654  60.594  1.00  0.00    -0.345 N 
ATOM     16  H   CYS B   2       2.790  86.987  61.206  1.00  0.00     0.163 HD
ATOM     17  C   LYS B   1       2.251  87.342  59.304  1.00  0.00     0.254 C 
ATOM     18  O   LYS B   1       1.726  88.118  58.499  1.00  0.00    -0.271 OA
BRANCH  17  19
ATOM     19  CA  LYS B   1       2.712  85.964  58.890  1.00  0.00     0.350 C 
BRANCH  19  20
ATOM     20  N   LYS B   1       2.503  85.750  57.461  1.00  0.00     0.312 N 
ATOM     21  H   LYS B   1       1.557  86.152  57.174  1.00  0.00     0.359 HD
ENDBRANCH  19  20
BRANCH  19  22
ATOM     22  CB  LYS B   1       4.213  85.755  59.231  1.00  0.00     0.048 C 
BRANCH  22  23
ATOM     23  CG  LYS B   1       5.088  87.001  58.946  1.00  0.00     0.004 C 
BRANCH  23  24
ATOM     24  CD  LYS B   1       6.152  87.297  60.006  1.00  0.00     0.027 C 
BRANCH  24  25
ATOM     25  CE  LYS B   1       6.683  88.723  59.806  1.00  0.00     0.229 C 
BRANCH  25  26
ATOM     26  NZ  LYS B   1       8.143  88.734  60.000  1.00  0.00    -0.079 N 
ATOM     27  HZ3 LYS B   1       8.478  89.594  59.590  1.00  0.00     0.274 HD
ATOM     28  HZ2 LYS B   1       8.585  87.922  59.556  1.00  0.00     0.274 HD
ATOM     29  HZ1 LYS B   1       8.377  88.676  60.998  1.00  0.00     0.274 HD
ENDBRANCH  25  26
ENDBRANCH  24  25
ENDBRANCH  23  24
ENDBRANCH  22  23
ENDBRANCH  19  22
ENDBRANCH  17  19
ENDBRANCH  11  15
ENDBRANCH   9  11
ENDBRANCH   6   7
BRANCH   6  30
ATOM     30  CB  PHE B   3       4.417  92.648  61.850  1.00  0.00     0.073 C 
BRANCH  30  31
ATOM     31  CG  PHE B   3       5.364  93.383  60.888  1.00  0.00    -0.056 A 
ATOM     32  CD2 PHE B   3       4.863  94.106  59.803  1.00  0.00     0.007 A 
ATOM     33  CE2 PHE B   3       5.728  94.825  58.982  1.00  0.00     0.001 A 
ATOM     34  CZ  PHE B   3       7.097  94.827  59.245  1.00  0.00     0.000 A 
ATOM     35  CE1 PHE B   3       7.603  94.107  60.325  1.00  0.00     0.001 A 
ATOM     36  CD1 PHE B   3       6.741  93.381  61.138  1.00  0.00     0.007 A 
ENDBRANCH  30  31
ENDBRANCH   6  30
ENDBRANCH   3   6
ENDBRANCH   1   2
BRANCH   1  37
ATOM     37  CB  PHE B   4       8.199  90.528  65.417  1.00  0.00     0.073 C 
BRANCH  37  38
ATOM     38  CG  PHE B   4       8.565  90.244  66.882  1.00  0.00    -0.056 A 
ATOM     39  CD1 PHE B   4       9.743  89.548  67.178  1.00  0.00     0.007 A 
ATOM     40  CE1 PHE B   4      10.048  89.212  68.492  1.00  0.00     0.001 A 
ATOM     41  CZ  PHE B   4       9.186  89.582  69.521  1.00  0.00     0.000 A 
ATOM     42  CE2 PHE B   4       8.015  90.285  69.236  1.00  0.00     0.001 A 
ATOM     43  CD2 PHE B   4       7.705  90.613  67.918  1.00  0.00     0.007 A 
ENDBRANCH  37  38
ENDBRANCH   1  37
BRANCH   1  44
ATOM     44  C   PHE B   4       8.105  93.018  65.273  1.00  0.00     0.241 C 
ATOM     45  O   PHE B   4       7.977  93.794  66.223  1.00  0.00    -0.271 OA
ATOM     46  N   THR B   5       8.990  93.231  64.292  1.00  7.70    -0.344 N 
ATOM     47  H   THR B   5       9.049  92.580  63.561  1.00  0.23     0.163 HD
BRANCH  46  48
ATOM     48  CA  THR B   5       9.866  94.399  64.273  1.00  7.88     0.205 C 
BRANCH  48  49
ATOM     49  CB  THR B   5      10.964  94.256  65.329  1.00  4.05     0.146 C 
ATOM     50  CG2 THR B   5      11.500  92.847  65.446  1.00  3.72     0.042 C 
BRANCH  49  51
ATOM     51  OG1 THR B   5      12.056  95.108  65.034  1.00  7.31    -0.393 OA
ATOM     52  HG1 THR B   5      12.324  95.573  65.829  1.00  0.23     0.210 HD
ENDBRANCH  49  51
ENDBRANCH  48  49
BRANCH  48  53
ATOM     53  C   THR B   5      10.492  94.580  62.894  1.00  7.05     0.243 C 
ATOM     54  O   THR B   5      10.649  93.617  62.143  1.00  6.06    -0.271 OA
ATOM     55  N   TRP B   6      10.844  95.818  62.565  1.00  0.00    -0.346 N 
ATOM     56  H   TRP B   6      10.693  96.544  63.205  1.00  0.23     0.163 HD
BRANCH  55  57
ATOM     57  CA  TRP B   6      11.448  96.122  61.274  1.00  0.00     0.181 C 
BRANCH  57  58
ATOM     58  CB  TRP B   6      11.280  97.607  60.950  1.00  0.00     0.075 C 
BRANCH  58  59
ATOM     59  CG  TRP B   6      10.877  97.853  59.528  1.00  0.00    -0.028 A 
ATOM     60  CD2 TRP B   6      11.611  98.595  58.547  1.00  0.00    -0.002 A 
ATOM     61  CE3 TRP B   6      12.826  99.286  58.561  1.00  0.00     0.014 A 
ATOM     62  CE2 TRP B   6      10.863  98.560  57.354  1.00  0.00     0.042 A 
ATOM     63  CZ3 TRP B   6      13.251  99.910  57.402  1.00  0.00     0.001 A 
ATOM     64  CH2 TRP B   6      12.486  99.859  56.230  1.00  0.00     0.002 A 
ATOM     65  CZ2 TRP B   6      11.293  99.189  56.189  1.00  0.00     0.030 A 
ATOM     66  NE1 TRP B   6       9.729  97.831  57.600  1.00  0.00    -0.365 N 
ATOM     67  CD1 TRP B   6       9.745  97.410  58.908  1.00  0.00     0.096 A 
ATOM     68  HE1 TRP B   6       9.021  97.641  56.949  1.00  0.23     0.165 HD
ENDBRANCH  58  59
ENDBRANCH  57  58
BRANCH  57  69
ATOM     69  C   TRP B   6      12.926  95.745  61.261  1.00  0.00     0.241 C 
ATOM     70  N   VAL B   7      13.340  94.970  62.259  1.00  6.11    -0.344 N 
ATOM     71  H   VAL B   7      12.696  94.683  62.939  1.00  0.23     0.163 HD
ATOM     72  O   TRP B   6      13.673  96.150  60.370  1.00  0.00    -0.271 OA
BRANCH  70  73
ATOM     73  CA  VAL B   7      14.728  94.539  62.369  1.00  5.65     0.189 C 
BRANCH  73  74
ATOM     74  CB  VAL B   7      15.422  95.197  63.577  1.00  1.15     0.010 C 
ATOM     75  CG1 VAL B   7      16.905  95.398  63.298  1.00  4.96     0.012 C 
ATOM     76  CG2 VAL B   7      14.755  96.519  63.927  1.00  9.83     0.012 C 
ENDBRANCH  73  74
BRANCH  73  77
ATOM     77  C   VAL B   7      14.825  93.022  62.502  1.00  4.44     0.197 C 
ATOM     78  O   VAL B   7      13.881  92.418  63.053  1.00  0.00    -0.646 OA
ATOM     79  OXT VAL B   7      15.842  92.453  62.057  1.00  0.00    -0.646 OA
ENDBRANCH  73  77
ENDBRANCH  70  73
ENDBRANCH  57  69
ENDBRANCH  55  57
ENDBRANCH  48  53
ENDBRANCH  46  48
ENDBRANCH   1  44
TORSDOF 30
ENDMDL
MODEL 9
REMARK VINA RESULT:      -5.2      4.198      6.741
REMARK  30 active torsions:
REMARK  status: ('A' for Active; 'I' for Inactive)
REMARK    1  A    between atoms: N_1  and  CA_2 
REMARK    2  A    between atoms: CA_2  and  CB_5 
REMARK    3  A    between atoms: CA_2  and  C_3 
REMARK       I    between atoms: C_3  and  N_14 
REMARK    4  A    between atoms: CB_5  and  CG_6 
REMARK    5  A    between atoms: CG_6  and  CD_7 
REMARK    6  A    between atoms: CD_7  and  CE_8 
REMARK    7  A    between atoms: CE_8  and  NZ_9 
REMARK    8  A    between atoms: N_14  and  CA_15 
REMARK    9  A    between atoms: CA_15  and  CB_18 
REMARK   10  A    between atoms: CA_15  and  C_16 
REMARK       I    between atoms: C_16  and  N_22 
REMARK   11  A    between atoms: CB_18  and  SG_19 
REMARK   12  A    between atoms: N_22  and  CA_23 
REMARK   13  A    between atoms: CA_23  and  CB_26 
REMARK   14  A    between atoms: CA_23  and  C_24 
REMARK       I    between atoms: C_24  and  N_34 
REMARK   15  A    between atoms: CB_26  and  CG_27 
REMARK   16  A    between atoms: N_34  and  CA_35 
REMARK   17  A    between atoms: CA_35  and  CB_38 
REMARK   18  A    between atoms: CA_35  and  C_36 
REMARK       I    between atoms: C_36  and  N_52 
REMARK   19  A    between atoms: CB_38  and  CG_39 
REMARK   20  A    between atoms: CA_46  and  N_52 
REMARK   21  A    between atoms: CA_46  and  CB_48 
REMARK   22  A    between atoms: CA_46  and  C_47 
REMARK       I    between atoms: C_47  and  N_68 
REMARK   23  A    between atoms: CB_48  and  OG1_54 
REMARK   24  A    between atoms: CA_55  and  CB_57 
REMARK   25  A    between atoms: CA_55  and  N_68 
REMARK   26  A    between atoms: CA_55  and  C_56 
REMARK       I    between atoms: C_56  and  N_77 
REMARK   27  A    between atoms: CB_57  and  CG_58 
REMARK   28  A    between atoms: CA_71  and  N_77 
REMARK   29  A    between atoms: CA_71  and  CB_73 
REMARK   30  A    between atoms: CA_71  and  C_72 
ROOT
ATOM      1  CA  PHE B   4       7.809  91.543  65.233  1.00  0.00     0.180 C 
ENDROOT
BRANCH   1   2
ATOM      2  N   PHE B   4       6.765  91.462  64.216  1.00  0.00    -0.346 N 
ATOM      3  C   PHE B   3       5.874  90.479  64.215  1.00  0.00     0.241 C 
ATOM      4  O   PHE B   3       5.878  89.592  65.085  1.00  0.00    -0.271 OA
ATOM      5  H   PHE B   4       6.722  92.151  63.516  1.00  0.00     0.163 HD
BRANCH   3   6
ATOM      6  CA  PHE B   3       4.818  90.483  63.135  1.00  0.00     0.180 C 
BRANCH   6   7
ATOM      7  N   PHE B   3       4.441  89.122  62.767  1.00  0.00    -0.346 N 
ATOM      8  H   PHE B   3       4.559  88.401  63.417  1.00  0.00     0.163 HD
ATOM      9  C   CYS B   2       3.933  88.835  61.554  1.00  0.00     0.241 C 
ATOM     10  O   CYS B   2       3.754  89.695  60.696  1.00  0.00    -0.271 OA
BRANCH   9  11
ATOM     11  CA  CYS B   2       3.629  87.378  61.294  1.00  0.00     0.185 C 
BRANCH  11  12
ATOM     12  CB  CYS B   2       3.337  86.597  62.590  1.00  0.00     0.105 C 
BRANCH  12  13
ATOM     13  SG  CYS B   2       1.562  86.307  62.777  1.00  0.00    -0.180 SA
ATOM     14  HG  CYS B   2       1.259  86.342  61.481  1.00  0.00     0.101 HD
ENDBRANCH  12  13
ENDBRANCH  11  12
BRANCH  11  15
ATOM     15  N   CYS B   2       4.739  86.728  60.602  1.00  0.00    -0.345 N 
ATOM     16  H   CYS B   2       5.560  86.520  61.100  1.00  0.00     0.163 HD
ATOM     17  C   LYS B   1       4.664  86.410  59.306  1.00  0.00     0.254 C 
ATOM     18  O   LYS B   1       3.639  86.599  58.642  1.00  0.00    -0.271 OA
BRANCH  17  19
ATOM     19  CA  LYS B   1       5.888  85.759  58.706  1.00  0.00     0.350 C 
BRANCH  19  20
ATOM     20  N   LYS B   1       5.626  85.311  57.341  1.00  0.00     0.312 N 
ATOM     21  H   LYS B   1       6.030  84.332  57.203  1.00  0.00     0.359 HD
ENDBRANCH  19  20
BRANCH  19  22
ATOM     22  CB  LYS B   1       7.094  86.738  58.707  1.00  0.00     0.048 C 
BRANCH  22  23
ATOM     23  CG  LYS B   1       7.700  86.967  60.114  1.00  0.00     0.004 C 
BRANCH  23  24
ATOM     24  CD  LYS B   1       7.885  88.436  60.505  1.00  0.00     0.027 C 
BRANCH  24  25
ATOM     25  CE  LYS B   1       7.078  89.320  59.544  1.00  0.00     0.229 C 
BRANCH  25  26
ATOM     26  NZ  LYS B   1       6.751  90.593  60.209  1.00  0.00    -0.079 N 
ATOM     27  HZ3 LYS B   1       7.384  90.676  60.992  1.00  0.00     0.274 HD
ATOM     28  HZ2 LYS B   1       5.776  90.610  60.525  1.00  0.00     0.274 HD
ATOM     29  HZ1 LYS B   1       6.853  91.380  59.556  1.00  0.00     0.274 HD
ENDBRANCH  25  26
ENDBRANCH  24  25
ENDBRANCH  23  24
ENDBRANCH  22  23
ENDBRANCH  19  22
ENDBRANCH  17  19
ENDBRANCH  11  15
ENDBRANCH   9  11
ENDBRANCH   6   7
BRANCH   6  30
ATOM     30  CB  PHE B   3       3.572  91.262  63.653  1.00  0.00     0.073 C 
BRANCH  30  31
ATOM     31  CG  PHE B   3       2.905  90.719  64.927  1.00  0.00    -0.056 A 
ATOM     32  CD2 PHE B   3       2.118  89.566  64.886  1.00  0.00     0.007 A 
ATOM     33  CE2 PHE B   3       1.578  89.045  66.059  1.00  0.00     0.001 A 
ATOM     34  CZ  PHE B   3       1.827  89.673  67.278  1.00  0.00     0.000 A 
ATOM     35  CE1 PHE B   3       2.610  90.824  67.326  1.00  0.00     0.001 A 
ATOM     36  CD1 PHE B   3       3.141  91.350  66.154  1.00  0.00     0.007 A 
ENDBRANCH  30  31
ENDBRANCH   6  30
ENDBRANCH   3   6
ENDBRANCH   1   2
BRANCH   1  37
ATOM     37  CB  PHE B   4       8.914  90.479  64.953  1.00  0.00     0.073 C 
BRANCH  37  38
ATOM     38  CG  PHE B   4       9.182  89.459  66.070  1.00  0.00    -0.056 A 
ATOM     39  CD1 PHE B   4       8.723  88.144  65.930  1.00  0.00     0.007 A 
ATOM     40  CE1 PHE B   4       8.887  87.231  66.965  1.00  0.00     0.001 A 
ATOM     41  CZ  PHE B   4       9.525  87.620  68.141  1.00  0.00     0.000 A 
ATOM     42  CE2 PHE B   4       9.996  88.925  68.283  1.00  0.00     0.001 A 
ATOM     43  CD2 PHE B   4       9.822  89.843  67.250  1.00  0.00     0.007 A 
ENDBRANCH  37  38
ENDBRANCH   1  37
BRANCH   1  44
ATOM     44  C   PHE B   4       8.445  92.913  65.250  1.00  0.00     0.241 C 
ATOM     45  O   PHE B   4       8.003  93.826  65.950  1.00  0.00    -0.271 OA
ATOM     46  N   THR B   5       9.521  93.068  64.469  1.00  7.70    -0.344 N 
ATOM     47  H   THR B   5       9.828  92.307  63.933  1.00  0.23     0.163 HD
BRANCH  46  48
ATOM     48  CA  THR B   5      10.249  94.331  64.388  1.00  7.88     0.205 C 
BRANCH  48  49
ATOM     49  CB  THR B   5      11.404  94.344  65.390  1.00  4.05     0.146 C 
ATOM     50  CG2 THR B   5      12.038  92.984  65.588  1.00  3.72     0.042 C 
BRANCH  49  51
ATOM     51  OG1 THR B   5      12.422  95.235  64.969  1.00  7.31    -0.393 OA
ATOM     52  HG1 THR B   5      12.109  95.748  64.222  1.00  0.23     0.210 HD
ENDBRANCH  49  51
ENDBRANCH  48  49
BRANCH  48  53
ATOM     53  C   THR B   5      10.782  94.554  62.976  1.00  7.05     0.243 C 
ATOM     54  O   THR B   5      10.880  93.617  62.184  1.00  6.06    -0.271 OA
ATOM     55  N   TRP B   6      11.122  95.801  62.666  1.00  0.00    -0.346 N 
ATOM     56  H   TRP B   6      11.020  96.506  63.338  1.00  0.23     0.163 HD
BRANCH  55  57
ATOM     57  CA  TRP B   6      11.641  96.145  61.348  1.00  0.00     0.181 C 
BRANCH  57  58
ATOM     58  CB  TRP B   6      11.510  97.649  61.106  1.00  0.00     0.075 C 
BRANCH  58  59
ATOM     59  CG  TRP B   6      11.135  97.984  59.695  1.00  0.00    -0.028 A 
ATOM     60  CD2 TRP B   6      11.947  98.666  58.731  1.00  0.00    -0.002 A 
ATOM     61  CE3 TRP B   6      13.234  99.210  58.759  1.00  0.00     0.014 A 
ATOM     62  CE2 TRP B   6      11.197  98.754  57.543  1.00  0.00     0.042 A 
ATOM     63  CZ3 TRP B   6      13.725  99.815  57.616  1.00  0.00     0.001 A 
ATOM     64  CH2 TRP B   6      12.956  99.890  56.448  1.00  0.00     0.002 A 
ATOM     65  CZ2 TRP B   6      11.693  99.365  56.395  1.00  0.00     0.030 A 
ATOM     66  NE1 TRP B   6       9.986  98.155  57.774  1.00  0.00    -0.365 N 
ATOM     67  CD1 TRP B   6       9.957  97.695  59.069  1.00  0.00     0.096 A 
ATOM     68  HE1 TRP B   6       9.259  98.068  57.123  1.00  0.23     0.165 HD
ENDBRANCH  58  59
ENDBRANCH  57  58
BRANCH  57  69
ATOM     69  C   TRP B   6      13.097  95.713  61.206  1.00  0.00     0.241 C 
ATOM     70  N   VAL B   7      13.570  94.927  62.168  1.00  6.11    -0.344 N 
ATOM     71  H   VAL B   7      12.979  94.665  62.904  1.00  0.23     0.163 HD
ATOM     72  O   TRP B   6      13.775  96.088  60.249  1.00  0.00    -0.271 OA
BRANCH  70  73
ATOM     73  CA  VAL B   7      14.945  94.445  62.155  1.00  5.65     0.189 C 
BRANCH  73  74
ATOM     74  CB  VAL B   7      15.782  95.121  63.259  1.00  1.15     0.010 C 
ATOM     75  CG1 VAL B   7      15.142  96.433  63.687  1.00  4.96     0.012 C 
ATOM     76  CG2 VAL B   7      15.953  94.190  64.450  1.00  9.83     0.012 C 
ENDBRANCH  73  74
BRANCH  73  77
ATOM     77  C   VAL B   7      15.001  92.932  62.343  1.00  4.44     0.197 C 
ATOM     78  O   VAL B   7      13.984  92.355  62.782  1.00  0.00    -0.646 OA
ATOM     79  OXT VAL B   7      16.058  92.338  62.051  1.00  0.00    -0.646 OA
ENDBRANCH  73  77
ENDBRANCH  70  73
ENDBRANCH  57  69
ENDBRANCH  55  57
ENDBRANCH  48  53
ENDBRANCH  46  48
ENDBRANCH   1  44
TORSDOF 30
ENDMDL
