REMARK WARNING: 32 MAX_TORS EXCEEDED!!!
REMARK  33 active torsions:
REMARK  status: ('A' for Active; 'I' for Inactive)
REMARK    1  A    between atoms: N_1  and  CA_2 
REMARK    2  A    between atoms: CA_2  and  CB_5 
REMARK    3  A    between atoms: CA_2  and  C_3 
REMARK       I    between atoms: C_3  and  N_14 
REMARK    4  A    between atoms: CB_5  and  CG_6 
REMARK    5  A    between atoms: CG_6  and  CD_7 
REMARK    6  A    between atoms: CD_7  and  CE_8 
REMARK    7  A    between atoms: CE_8  and  NZ_9 
REMARK    8  A    between atoms: N_14  and  CA_15 
REMARK    9  A    between atoms: CA_15  and  CB_18 
REMARK   10  A    between atoms: CA_15  and  C_16 
REMARK       I    between atoms: C_16  and  N_22 
REMARK   11  A    between atoms: CB_18  and  SG_19 
REMARK   12  A    between atoms: N_22  and  CA_23 
REMARK   13  A    between atoms: CA_23  and  CB_26 
REMARK   14  A    between atoms: CA_23  and  C_24 
REMARK       I    between atoms: C_24  and  N_34 
REMARK   15  A    between atoms: CB_26  and  CG_27 
REMARK   16  A    between atoms: N_34  and  CA_35 
REMARK   17  A    between atoms: CA_35  and  CB_38 
REMARK   18  A    between atoms: CA_35  and  C_36 
REMARK       I    between atoms: C_36  and  N_53 
REMARK   19  A    between atoms: CB_38  and  CG_39 
REMARK   20  A    between atoms: CG_39  and  CD_40 
REMARK   21  A    between atoms: CD_40  and  CE_41 
REMARK   22  A    between atoms: CE_41  and  NZ_42 
REMARK   23  A    between atoms: CA_47  and  N_53 
REMARK   24  A    between atoms: CA_47  and  CB_49 
REMARK   25  A    between atoms: CA_47  and  C_48 
REMARK       I    between atoms: C_48  and  N_69 
REMARK   26  A    between atoms: CB_49  and  OG1_55 
REMARK   27  A    between atoms: CA_56  and  CB_58 
REMARK   28  A    between atoms: CA_56  and  N_69 
REMARK   29  A    between atoms: CA_56  and  C_57 
REMARK       I    between atoms: C_57  and  N_78 
REMARK   30  A    between atoms: CB_58  and  CG_59 
REMARK   31  A    between atoms: CA_72  and  N_78 
REMARK   32  A    between atoms: CA_72  and  CB_74 
REMARK   33  A    between atoms: CA_72  and  C_73 
ROOT
ATOM      1  CA  LYS B   4       2.944  -2.073  -1.420  1.00  0.00     0.176 C 
ENDROOT
BRANCH   1   2
ATOM      2  N   LYS B   4       2.718  -3.259  -0.600  1.00  0.00    -0.346 N 
ATOM      3  C   PHE B   3       3.729  -4.019  -0.170  1.00  0.00     0.241 C 
ATOM      4  O   PHE B   3       4.909  -3.750  -0.448  1.00  0.00    -0.271 OA
ATOM      5  H   LYS B   4       1.800  -3.505  -0.358  1.00  0.00     0.163 HD
BRANCH   3   6
ATOM      6  CA  PHE B   3       3.402  -5.210   0.699  1.00  0.00     0.180 C 
BRANCH   6   7
ATOM      7  N   PHE B   3       2.350  -4.885   1.657  1.00  0.00    -0.346 N 
ATOM      8  H   PHE B   3       1.876  -4.034   1.576  1.00  0.00     0.163 HD
ATOM      9  C   CYS B   2       2.016  -5.730   2.650  1.00  0.00     0.241 C 
ATOM     10  O   CYS B   2       2.568  -6.816   2.803  1.00  0.00    -0.271 OA
BRANCH   9  11
ATOM     11  CA  CYS B   2       0.941  -5.245   3.595  1.00  0.00     0.185 C 
BRANCH  11  12
ATOM     12  CB  CYS B   2       1.503  -4.856   4.976  1.00  0.00     0.105 C 
BRANCH  12  13
ATOM     13  SG  CYS B   2       2.757  -3.564   4.816  1.00  0.00    -0.180 SA
ATOM     14  HG  CYS B   2       3.815  -4.342   5.031  1.00  0.00     0.101 HD
ENDBRANCH  12  13
ENDBRANCH  11  12
BRANCH  11  15
ATOM     15  N   CYS B   2      -0.088  -6.264   3.783  1.00  0.00    -0.345 N 
ATOM     16  H   CYS B   2      -0.933  -6.191   3.286  1.00  0.00     0.163 HD
ATOM     17  C   LYS B   1       0.092  -7.294   4.615  1.00  0.00     0.254 C 
ATOM     18  O   LYS B   1       1.152  -7.467   5.226  1.00  0.00    -0.271 OA
BRANCH  17  19
ATOM     19  CA  LYS B   1      -1.058  -8.267   4.732  1.00  0.00     0.350 C 
BRANCH  19  20
ATOM     20  N   LYS B   1      -2.222  -7.630   5.341  1.00  0.00     0.312 N 
ATOM     21  H   LYS B   1      -1.997  -6.610   5.561  1.00  0.00     0.359 HD
ENDBRANCH  19  20
BRANCH  19  22
ATOM     22  CB  LYS B   1      -1.448  -8.835   3.340  1.00  0.00     0.048 C 
BRANCH  22  23
ATOM     23  CG  LYS B   1      -2.450 -10.014   3.415  1.00  0.00     0.004 C 
BRANCH  23  24
ATOM     24  CD  LYS B   1      -2.847 -10.609   2.061  1.00  0.00     0.027 C 
BRANCH  24  25
ATOM     25  CE  LYS B   1      -3.849 -11.750   2.284  1.00  0.00     0.229 C 
BRANCH  25  26
ATOM     26  NZ  LYS B   1      -4.242 -12.318   0.983  1.00  0.00    -0.079 N 
ATOM     27  HZ3 LYS B   1      -4.990 -11.736   0.633  1.00  0.00     0.274 HD
ATOM     28  HZ2 LYS B   1      -4.551 -13.291   1.078  1.00  0.00     0.274 HD
ATOM     29  HZ1 LYS B   1      -3.443 -12.334   0.338  1.00  0.00     0.274 HD
ENDBRANCH  25  26
ENDBRANCH  24  25
ENDBRANCH  23  24
ENDBRANCH  22  23
ENDBRANCH  19  22
ENDBRANCH  17  19
ENDBRANCH  11  15
ENDBRANCH   9  11
ENDBRANCH   6   7
BRANCH   6  30
ATOM     30  CB  PHE B   3       2.949  -6.389  -0.214  1.00  0.00     0.073 C 
BRANCH  30  31
ATOM     31  CG  PHE B   3       3.966  -6.876  -1.259  1.00  0.00    -0.056 A 
ATOM     32  CD2 PHE B   3       3.883  -6.455  -2.588  1.00  0.00     0.007 A 
ATOM     33  CE2 PHE B   3       4.852  -6.848  -3.508  1.00  0.00     0.001 A 
ATOM     34  CZ  PHE B   3       5.910  -7.659  -3.101  1.00  0.00     0.000 A 
ATOM     35  CE1 PHE B   3       5.998  -8.083  -1.777  1.00  0.00     0.001 A 
ATOM     36  CD1 PHE B   3       5.025  -7.700  -0.861  1.00  0.00     0.007 A 
ENDBRANCH  30  31
ENDBRANCH   6  30
ENDBRANCH   3   6
ENDBRANCH   1   2
BRANCH   1  37
ATOM     37  CB  LYS B   4       1.603  -1.625  -2.062  1.00  0.00     0.035 C 
BRANCH  37  38
ATOM     38  CG  LYS B   4       1.752  -0.420  -3.024  1.00  0.00     0.004 C 
BRANCH  38  39
ATOM     39  CD  LYS B   4       0.465  -0.007  -3.744  1.00  0.00     0.027 C 
BRANCH  39  40
ATOM     40  CE  LYS B   4       0.763   1.179  -4.671  1.00  0.00     0.229 C 
BRANCH  40  41
ATOM     41  NZ  LYS B   4      -0.473   1.578  -5.368  1.00  0.00    -0.079 N 
ATOM     42  HZ3 LYS B   4      -0.553   0.975  -6.173  1.00  0.00     0.274 HD
ATOM     43  HZ2 LYS B   4      -0.440   2.563  -5.651  1.00  0.00     0.274 HD
ATOM     44  HZ1 LYS B   4      -1.285   1.487  -4.745  1.00  0.00     0.274 HD
ENDBRANCH  40  41
ENDBRANCH  39  40
ENDBRANCH  38  39
ENDBRANCH  37  38
ENDBRANCH   1  37
BRANCH   1  45
ATOM     45  C   LYS B   4       3.551  -0.957  -0.603  1.00  0.00     0.241 C 
ATOM     46  O   LYS B   4       3.056  -0.622   0.476  1.00  0.00    -0.271 OA
ATOM     47  N   THR B   5       4.607  -0.349  -1.134  1.00  7.70    -0.344 N 
ATOM     48  H   THR B   5       4.944  -0.656  -2.002  1.00  0.23     0.163 HD
BRANCH  47  49
ATOM     49  CA  THR B   5       5.286   0.753  -0.459  1.00  7.88     0.205 C 
BRANCH  49  50
ATOM     50  CB  THR B   5       6.709   0.344  -0.075  1.00  4.05     0.146 C 
ATOM     51  CG2 THR B   5       7.356   1.289   0.914  1.00  3.72     0.042 C 
BRANCH  50  52
ATOM     52  OG1 THR B   5       6.720  -0.951   0.499  1.00  7.31    -0.393 OA
ATOM     53  HG1 THR B   5       6.777  -1.609  -0.197  1.00  0.23     0.210 HD
ENDBRANCH  50  52
ENDBRANCH  49  50
BRANCH  49  54
ATOM     54  C   THR B   5       5.323   1.989  -1.352  1.00  7.05     0.243 C 
ATOM     55  O   THR B   5       5.874   1.955  -2.452  1.00  6.06    -0.271 OA
ATOM     56  N   TRP B   6       4.731   3.078  -0.874  1.00  0.00    -0.346 N 
ATOM     57  H   TRP B   6       4.307   3.044   0.009  1.00  0.23     0.163 HD
BRANCH  56  58
ATOM     58  CA  TRP B   6       4.694   4.322  -1.632  1.00  0.00     0.181 C 
BRANCH  58  59
ATOM     59  CB  TRP B   6       3.466   5.144  -1.238  1.00  0.00     0.075 C 
BRANCH  59  60
ATOM     60  CG  TRP B   6       2.176   4.494  -1.635  1.00  0.00    -0.028 A 
ATOM     61  CD2 TRP B   6       1.490   4.644  -2.884  1.00  0.00    -0.002 A 
ATOM     62  CE3 TRP B   6       1.744   5.374  -4.048  1.00  0.00     0.014 A 
ATOM     63  CE2 TRP B   6       0.330   3.849  -2.820  1.00  0.00     0.042 A 
ATOM     64  CZ3 TRP B   6       0.846   5.288  -5.097  1.00  0.00     0.001 A 
ATOM     65  CH2 TRP B   6      -0.300   4.489  -5.005  1.00  0.00     0.002 A 
ATOM     66  CZ2 TRP B   6      -0.572   3.764  -3.877  1.00  0.00     0.030 A 
ATOM     67  NE1 TRP B   6       0.312   3.244  -1.590  1.00  0.00    -0.365 N 
ATOM     68  HE1 TRP B   6      -0.381   2.631  -1.266  1.00  0.23     0.165 HD
ATOM     69  CD1 TRP B   6       1.424   3.637  -0.885  1.00  0.00     0.096 A 
ENDBRANCH  59  60
ENDBRANCH  58  59
BRANCH  58  70
ATOM     70  C   TRP B   6       5.965   5.135  -1.408  1.00  0.00     0.241 C 
ATOM     71  N   VAL B   7       6.752   5.293  -2.468  1.00  6.11    -0.344 N 
ATOM     72  H   VAL B   7       6.488   4.893  -3.322  1.00  0.23     0.163 HD
ATOM     73  O   TRP B   6       6.227   5.604  -0.300  1.00  0.00    -0.271 OA
BRANCH  71  74
ATOM     74  CA  VAL B   7       7.998   6.045  -2.391  1.00  5.65     0.189 C 
BRANCH  74  75
ATOM     75  CB  VAL B   7       9.053   5.476  -3.360  1.00  1.15     0.010 C 
ATOM     76  CG1 VAL B   7       9.474   4.078  -2.930  1.00  4.96     0.012 C 
ATOM     77  CG2 VAL B   7       8.523   5.465  -4.786  1.00  9.83     0.012 C 
ENDBRANCH  74  75
BRANCH  74  78
ATOM     78  C   VAL B   7       7.772   7.520  -2.710  1.00  4.44     0.197 C 
ATOM     79  O   VAL B   7       8.412   8.369  -2.055  1.00  0.00    -0.646 OA
ATOM     80  OXT VAL B   7       6.958   7.813  -3.609  1.00  0.00    -0.646 OA
ENDBRANCH  74  78
ENDBRANCH  71  74
ENDBRANCH  58  70
ENDBRANCH  56  58
ENDBRANCH  49  54
ENDBRANCH  47  49
ENDBRANCH   1  45
TORSDOF 33
