MODEL 1
REMARK VINA RESULT:      -7.3      0.000      0.000
REMARK  30 active torsions:
REMARK  status: ('A' for Active; 'I' for Inactive)
REMARK    1  A    between atoms: N_1  and  CA_2 
REMARK    2  A    between atoms: CA_2  and  CB_5 
REMARK    3  A    between atoms: CA_2  and  C_3 
REMARK       I    between atoms: C_3  and  N_14 
REMARK    4  A    between atoms: CB_5  and  CG_6 
REMARK    5  A    between atoms: CG_6  and  CD_7 
REMARK    6  A    between atoms: CD_7  and  CE_8 
REMARK    7  A    between atoms: CE_8  and  NZ_9 
REMARK    8  A    between atoms: N_14  and  CA_15 
REMARK    9  A    between atoms: CA_15  and  CB_18 
REMARK   10  A    between atoms: CA_15  and  C_16 
REMARK       I    between atoms: C_16  and  N_22 
REMARK   11  A    between atoms: CB_18  and  SG_19 
REMARK   12  A    between atoms: N_22  and  CA_23 
REMARK   13  A    between atoms: CA_23  and  CB_26 
REMARK   14  A    between atoms: CA_23  and  C_24 
REMARK       I    between atoms: C_24  and  N_34 
REMARK   15  A    between atoms: CB_26  and  CG_27 
REMARK   16  A    between atoms: N_34  and  CA_35 
REMARK   17  A    between atoms: CA_35  and  CB_38 
REMARK   18  A    between atoms: CA_35  and  C_36 
REMARK       I    between atoms: C_36  and  N_49 
REMARK   19  A    between atoms: CB_38  and  CG_39 
REMARK   20  A    between atoms: CA_43  and  N_49 
REMARK   21  A    between atoms: CA_43  and  CB_45 
REMARK   22  A    between atoms: CA_43  and  C_44 
REMARK       I    between atoms: C_44  and  N_65 
REMARK   23  A    between atoms: CB_45  and  OG1_51 
REMARK   24  A    between atoms: CA_52  and  CB_54 
REMARK   25  A    between atoms: CA_52  and  N_65 
REMARK   26  A    between atoms: CA_52  and  C_53 
REMARK       I    between atoms: C_53  and  N_74 
REMARK   27  A    between atoms: CB_54  and  CG_55 
REMARK   28  A    between atoms: CA_68  and  N_74 
REMARK   29  A    between atoms: CA_68  and  CB_70 
REMARK   30  A    between atoms: CA_68  and  C_69 
ROOT
ATOM      1  CA  ASP B   4       6.361  86.863  60.903  1.00  0.00     0.186 C 
ENDROOT
BRANCH   1   2
ATOM      2  CB  ASP B   4       7.287  86.464  59.721  1.00  0.00     0.147 C 
BRANCH   2   3
ATOM      3  CG  ASP B   4       6.647  86.530  58.327  1.00  0.00     0.175 C 
ATOM      4  OD2 ASP B   4       5.879  85.610  57.977  1.00  0.00    -0.648 OA
ATOM      5  OD1 ASP B   4       6.873  87.521  57.601  1.00  0.00    -0.648 OA
ENDBRANCH   2   3
ENDBRANCH   1   2
BRANCH   1   6
ATOM      6  C   ASP B   4       6.654  88.269  61.367  1.00  0.00     0.241 C 
ATOM      7  O   ASP B   4       6.951  89.150  60.556  1.00  0.00    -0.271 OA
ATOM      8  N   THR B   5       6.614  88.482  62.680  1.00  7.70    -0.344 N 
ATOM      9  H   THR B   5       6.384  87.737  63.273  1.00  0.23     0.163 HD
BRANCH   8  10
ATOM     10  CA  THR B   5       6.890  89.792  63.262  1.00  7.88     0.205 C 
BRANCH  10  11
ATOM     11  CB  THR B   5       5.938  90.066  64.428  1.00  4.05     0.146 C 
ATOM     12  CG2 THR B   5       4.485  89.825  64.083  1.00  3.72     0.042 C 
BRANCH  11  13
ATOM     13  OG1 THR B   5       6.258  89.246  65.538  1.00  7.31    -0.393 OA
ATOM     14  HG1 THR B   5       6.294  88.329  65.258  1.00  0.23     0.210 HD
ENDBRANCH  11  13
ENDBRANCH  10  11
BRANCH  10  15
ATOM     15  C   THR B   5       8.336  89.874  63.740  1.00  7.05     0.243 C 
ATOM     16  N   TRP B   6       8.629  90.880  64.557  1.00  0.00    -0.346 N 
ATOM     17  H   TRP B   6       7.924  91.511  64.813  1.00  0.23     0.163 HD
ATOM     18  O   THR B   5       9.168  89.045  63.373  1.00  6.06    -0.271 OA
BRANCH  16  19
ATOM     19  CA  TRP B   6       9.976  91.071  65.080  1.00  0.00     0.181 C 
BRANCH  19  20
ATOM     20  CB  TRP B   6      10.298  92.563  65.177  1.00  0.00     0.075 C 
BRANCH  20  21
ATOM     21  CG  TRP B   6      11.624  92.914  64.573  1.00  0.00    -0.028 A 
ATOM     22  CD2 TRP B   6      11.881  93.946  63.613  1.00  0.00    -0.002 A 
ATOM     23  CE2 TRP B   6      13.261  93.922  63.335  1.00  0.00     0.042 A 
ATOM     24  CE3 TRP B   6      11.078  94.885  62.960  1.00  0.00     0.014 A 
ATOM     25  CZ2 TRP B   6      13.853  94.802  62.435  1.00  0.00     0.030 A 
ATOM     26  NE1 TRP B   6      13.816  92.923  64.092  1.00  0.00    -0.365 N 
ATOM     27  CH2 TRP B   6      13.045  95.712  61.809  1.00  0.00     0.002 A 
ATOM     28  CZ3 TRP B   6      11.669  95.759  62.065  1.00  0.00     0.001 A 
ATOM     29  HE1 TRP B   6      14.765  92.676  64.104  1.00  0.23     0.165 HD
ATOM     30  CD1 TRP B   6      12.826  92.323  64.832  1.00  0.00     0.096 A 
ENDBRANCH  20  21
ENDBRANCH  19  20
BRANCH  19  31
ATOM     31  C   TRP B   6      10.128  90.410  66.446  1.00  0.00     0.241 C 
ATOM     32  N   VAL B   7       9.030  89.861  66.956  1.00  6.11    -0.344 N 
ATOM     33  H   VAL B   7       8.195  89.902  66.445  1.00  0.23     0.163 HD
ATOM     34  O   TRP B   6      11.215  90.402  67.026  1.00  0.00    -0.271 OA
BRANCH  32  35
ATOM     35  CA  VAL B   7       9.036  89.200  68.255  1.00  5.65     0.189 C 
BRANCH  35  36
ATOM     36  CB  VAL B   7       8.038  89.865  69.223  1.00  1.15     0.010 C 
ATOM     37  CG1 VAL B   7       8.778  90.580  70.344  1.00  4.96     0.012 C 
ATOM     38  CG2 VAL B   7       7.127  90.829  68.478  1.00  9.83     0.012 C 
ENDBRANCH  35  36
BRANCH  35  39
ATOM     39  C   VAL B   7       8.691  87.720  68.122  1.00  4.44     0.197 C 
ATOM     40  OXT VAL B   7       9.572  86.879  68.396  1.00  0.00    -0.646 OA
ATOM     41  O   VAL B   7       7.540  87.415  67.745  1.00  0.00    -0.646 OA
ENDBRANCH  35  39
ENDBRANCH  32  35
ENDBRANCH  19  31
ENDBRANCH  16  19
ENDBRANCH  10  15
ENDBRANCH   8  10
ENDBRANCH   1   6
BRANCH   1  42
ATOM     42  N   ASP B   4       4.957  86.717  60.528  1.00  0.00    -0.345 N 
ATOM     43  C   PHE B   3       3.985  86.660  61.426  1.00  0.00     0.241 C 
ATOM     44  O   PHE B   3       4.219  86.730  62.644  1.00  0.00    -0.271 OA
ATOM     45  H   ASP B   4       4.725  86.659  59.570  1.00  0.00     0.163 HD
BRANCH  43  46
ATOM     46  CA  PHE B   3       2.564  86.540  60.929  1.00  0.00     0.180 C 
BRANCH  46  47
ATOM     47  N   PHE B   3       2.310  87.479  59.840  1.00  0.00    -0.346 N 
ATOM     48  H   PHE B   3       2.704  87.309  58.961  1.00  0.00     0.163 HD
ATOM     49  C   CYS B   2       1.547  88.573  60.017  1.00  0.00     0.241 C 
ATOM     50  O   CYS B   2       1.020  88.841  61.093  1.00  0.00    -0.271 OA
BRANCH  49  51
ATOM     51  CA  CYS B   2       1.407  89.481  58.816  1.00  0.00     0.185 C 
BRANCH  51  52
ATOM     52  CB  CYS B   2       1.802  88.782  57.501  1.00  0.00     0.105 C 
BRANCH  52  53
ATOM     53  SG  CYS B   2       0.352  88.519  56.455  1.00  0.00    -0.180 SA
ATOM     54  HG  CYS B   2      -0.177  87.525  57.164  1.00  0.00     0.101 HD
ENDBRANCH  52  53
ENDBRANCH  51  52
BRANCH  51  55
ATOM     55  N   CYS B   2       2.226  90.680  58.969  1.00  0.00    -0.345 N 
ATOM     56  H   CYS B   2       1.786  91.556  59.040  1.00  0.00     0.163 HD
ATOM     57  C   LYS B   1       3.560  90.614  59.015  1.00  0.00     0.254 C 
ATOM     58  O   LYS B   1       4.166  89.538  58.983  1.00  0.00    -0.271 OA
BRANCH  57  59
ATOM     59  CA  LYS B   1       4.289  91.930  59.157  1.00  0.00     0.350 C 
BRANCH  59  60
ATOM     60  N   LYS B   1       3.353  93.022  59.409  1.00  0.00     0.312 N 
ATOM     61  H   LYS B   1       3.034  93.440  58.480  1.00  0.00     0.359 HD
ENDBRANCH  59  60
BRANCH  59  62
ATOM     62  CB  LYS B   1       5.331  91.865  60.306  1.00  0.00     0.048 C 
BRANCH  62  63
ATOM     63  CG  LYS B   1       4.843  92.529  61.618  1.00  0.00     0.004 C 
BRANCH  63  64
ATOM     64  CD  LYS B   1       5.645  93.757  62.057  1.00  0.00     0.027 C 
BRANCH  64  65
ATOM     65  CE  LYS B   1       6.910  93.298  62.794  1.00  0.00     0.229 C 
BRANCH  65  66
ATOM     66  NZ  LYS B   1       8.031  93.221  61.842  1.00  0.00    -0.079 N 
ATOM     67  HZ3 LYS B   1       8.476  92.328  61.998  1.00  0.00     0.274 HD
ATOM     68  HZ2 LYS B   1       8.696  93.989  61.983  1.00  0.00     0.274 HD
ATOM     69  HZ1 LYS B   1       7.694  93.310  60.876  1.00  0.00     0.274 HD
ENDBRANCH  65  66
ENDBRANCH  64  65
ENDBRANCH  63  64
ENDBRANCH  62  63
ENDBRANCH  59  62
ENDBRANCH  57  59
ENDBRANCH  51  55
ENDBRANCH  49  51
ENDBRANCH  46  47
BRANCH  46  70
ATOM     70  CB  PHE B   3       2.323  85.079  60.443  1.00  0.00     0.073 C 
BRANCH  70  71
ATOM     71  CG  PHE B   3       1.879  84.066  61.511  1.00  0.00    -0.056 A 
ATOM     72  CD2 PHE B   3       2.783  83.589  62.463  1.00  0.00     0.007 A 
ATOM     73  CE2 PHE B   3       2.350  82.727  63.467  1.00  0.00     0.001 A 
ATOM     74  CZ  PHE B   3       1.011  82.343  63.525  1.00  0.00     0.000 A 
ATOM     75  CE1 PHE B   3       0.105  82.815  62.578  1.00  0.00     0.001 A 
ATOM     76  CD1 PHE B   3       0.539  83.667  61.569  1.00  0.00     0.007 A 
ENDBRANCH  70  71
ENDBRANCH  46  70
ENDBRANCH  43  46
ENDBRANCH   1  42
TORSDOF 30
ENDMDL
MODEL 2
REMARK VINA RESULT:      -7.0      2.871     10.110
REMARK  30 active torsions:
REMARK  status: ('A' for Active; 'I' for Inactive)
REMARK    1  A    between atoms: N_1  and  CA_2 
REMARK    2  A    between atoms: CA_2  and  CB_5 
REMARK    3  A    between atoms: CA_2  and  C_3 
REMARK       I    between atoms: C_3  and  N_14 
REMARK    4  A    between atoms: CB_5  and  CG_6 
REMARK    5  A    between atoms: CG_6  and  CD_7 
REMARK    6  A    between atoms: CD_7  and  CE_8 
REMARK    7  A    between atoms: CE_8  and  NZ_9 
REMARK    8  A    between atoms: N_14  and  CA_15 
REMARK    9  A    between atoms: CA_15  and  CB_18 
REMARK   10  A    between atoms: CA_15  and  C_16 
REMARK       I    between atoms: C_16  and  N_22 
REMARK   11  A    between atoms: CB_18  and  SG_19 
REMARK   12  A    between atoms: N_22  and  CA_23 
REMARK   13  A    between atoms: CA_23  and  CB_26 
REMARK   14  A    between atoms: CA_23  and  C_24 
REMARK       I    between atoms: C_24  and  N_34 
REMARK   15  A    between atoms: CB_26  and  CG_27 
REMARK   16  A    between atoms: N_34  and  CA_35 
REMARK   17  A    between atoms: CA_35  and  CB_38 
REMARK   18  A    between atoms: CA_35  and  C_36 
REMARK       I    between atoms: C_36  and  N_49 
REMARK   19  A    between atoms: CB_38  and  CG_39 
REMARK   20  A    between atoms: CA_43  and  N_49 
REMARK   21  A    between atoms: CA_43  and  CB_45 
REMARK   22  A    between atoms: CA_43  and  C_44 
REMARK       I    between atoms: C_44  and  N_65 
REMARK   23  A    between atoms: CB_45  and  OG1_51 
REMARK   24  A    between atoms: CA_52  and  CB_54 
REMARK   25  A    between atoms: CA_52  and  N_65 
REMARK   26  A    between atoms: CA_52  and  C_53 
REMARK       I    between atoms: C_53  and  N_74 
REMARK   27  A    between atoms: CB_54  and  CG_55 
REMARK   28  A    between atoms: CA_68  and  N_74 
REMARK   29  A    between atoms: CA_68  and  CB_70 
REMARK   30  A    between atoms: CA_68  and  C_69 
ROOT
ATOM      1  CA  ASP B   4       5.574  88.521  60.056  1.00  0.00     0.186 C 
ENDROOT
BRANCH   1   2
ATOM      2  CB  ASP B   4       5.875  87.036  60.400  1.00  0.00     0.147 C 
BRANCH   2   3
ATOM      3  CG  ASP B   4       6.539  86.220  59.282  1.00  0.00     0.175 C 
ATOM      4  OD2 ASP B   4       7.760  85.976  59.363  1.00  0.00    -0.648 OA
ATOM      5  OD1 ASP B   4       5.834  85.785  58.347  1.00  0.00    -0.648 OA
ENDBRANCH   2   3
ENDBRANCH   1   2
BRANCH   1   6
ATOM      6  C   ASP B   4       4.133  88.697  59.643  1.00  0.00     0.241 C 
ATOM      7  O   ASP B   4       3.629  89.823  59.581  1.00  0.00    -0.271 OA
ATOM      8  N   THR B   5       3.445  87.586  59.395  1.00  7.70    -0.344 N 
ATOM      9  H   THR B   5       3.900  86.721  59.474  1.00  0.23     0.163 HD
BRANCH   8  10
ATOM     10  CA  THR B   5       2.040  87.615  59.000  1.00  7.88     0.205 C 
BRANCH  10  11
ATOM     11  CB  THR B   5       1.746  86.493  58.002  1.00  4.05     0.146 C 
ATOM     12  CG2 THR B   5       1.110  86.984  56.720  1.00  3.72     0.042 C 
BRANCH  11  13
ATOM     13  OG1 THR B   5       2.936  85.807  57.655  1.00  7.31    -0.393 OA
ATOM     14  HG1 THR B   5       2.793  84.861  57.728  1.00  0.23     0.210 HD
ENDBRANCH  11  13
ENDBRANCH  10  11
BRANCH  10  15
ATOM     15  C   THR B   5       1.135  87.477  60.220  1.00  7.05     0.243 C 
ATOM     16  N   TRP B   6       1.713  87.045  61.335  1.00  0.00    -0.346 N 
ATOM     17  H   TRP B   6       2.672  86.839  61.329  1.00  0.23     0.163 HD
ATOM     18  O   THR B   5      -0.062  87.753  60.150  1.00  6.06    -0.271 OA
BRANCH  16  19
ATOM     19  CA  TRP B   6       0.957  86.867  62.568  1.00  0.00     0.181 C 
BRANCH  19  20
ATOM     20  CB  TRP B   6       1.537  85.708  63.380  1.00  0.00     0.075 C 
BRANCH  20  21
ATOM     21  CG  TRP B   6       1.137  84.365  62.850  1.00  0.00    -0.028 A 
ATOM     22  CD2 TRP B   6       1.736  83.104  63.174  1.00  0.00    -0.002 A 
ATOM     23  CE2 TRP B   6       1.039  82.116  62.453  1.00  0.00     0.042 A 
ATOM     24  CE3 TRP B   6       2.794  82.716  64.000  1.00  0.00     0.014 A 
ATOM     25  CZ2 TRP B   6       1.366  80.765  62.538  1.00  0.00     0.030 A 
ATOM     26  NE1 TRP B   6       0.062  82.746  61.727  1.00  0.00    -0.365 N 
ATOM     27  CH2 TRP B   6       2.406  80.412  63.354  1.00  0.00     0.002 A 
ATOM     28  CZ3 TRP B   6       3.117  81.374  64.082  1.00  0.00     0.001 A 
ATOM     29  HE1 TRP B   6      -0.579  82.306  61.131  1.00  0.23     0.165 HD
ATOM     30  CD1 TRP B   6       0.129  84.097  61.971  1.00  0.00     0.096 A 
ENDBRANCH  20  21
ENDBRANCH  19  20
BRANCH  19  31
ATOM     31  C   TRP B   6       0.960  88.146  63.399  1.00  0.00     0.241 C 
ATOM     32  N   VAL B   7       2.106  88.448  64.002  1.00  6.11    -0.344 N 
ATOM     33  H   VAL B   7       2.876  87.854  63.888  1.00  0.23     0.163 HD
ATOM     34  O   TRP B   6      -0.054  88.839  63.494  1.00  0.00    -0.271 OA
BRANCH  32  35
ATOM     35  CA  VAL B   7       2.244  89.640  64.829  1.00  5.65     0.189 C 
BRANCH  35  36
ATOM     36  CB  VAL B   7       2.585  89.271  66.286  1.00  1.15     0.010 C 
ATOM     37  CG1 VAL B   7       1.485  88.410  66.890  1.00  4.96     0.012 C 
ATOM     38  CG2 VAL B   7       3.928  88.560  66.360  1.00  9.83     0.012 C 
ENDBRANCH  35  36
BRANCH  35  39
ATOM     39  C   VAL B   7       3.327  90.567  64.283  1.00  4.44     0.197 C 
ATOM     40  OXT VAL B   7       3.654  91.560  64.963  1.00  0.00    -0.646 OA
ATOM     41  O   VAL B   7       3.838  90.288  63.178  1.00  0.00    -0.646 OA
ENDBRANCH  35  39
ENDBRANCH  32  35
ENDBRANCH  19  31
ENDBRANCH  16  19
ENDBRANCH  10  15
ENDBRANCH   8  10
ENDBRANCH   1   6
BRANCH   1  42
ATOM     42  N   ASP B   4       5.904  89.387  61.185  1.00  0.00    -0.345 N 
ATOM     43  C   PHE B   3       7.148  89.550  61.613  1.00  0.00     0.241 C 
ATOM     44  O   PHE B   3       8.104  88.972  61.071  1.00  0.00    -0.271 OA
ATOM     45  H   ASP B   4       5.175  89.867  61.644  1.00  0.00     0.163 HD
BRANCH  43  46
ATOM     46  CA  PHE B   3       7.383  90.493  62.769  1.00  0.00     0.180 C 
BRANCH  46  47
ATOM     47  N   PHE B   3       8.439  89.994  63.645  1.00  0.00    -0.346 N 
ATOM     48  H   PHE B   3       9.168  89.469  63.262  1.00  0.00     0.163 HD
ATOM     49  C   CYS B   2       8.432  90.241  64.968  1.00  0.00     0.241 C 
ATOM     50  O   CYS B   2       7.548  90.900  65.509  1.00  0.00    -0.271 OA
BRANCH  49  51
ATOM     51  CA  CYS B   2       9.562  89.625  65.760  1.00  0.00     0.185 C 
BRANCH  51  52
ATOM     52  CB  CYS B   2       9.100  89.096  67.131  1.00  0.00     0.105 C 
BRANCH  52  53
ATOM     53  SG  CYS B   2       9.402  90.322  68.425  1.00  0.00    -0.180 SA
ATOM     54  HG  CYS B   2      10.730  90.309  68.348  1.00  0.00     0.101 HD
ENDBRANCH  52  53
ENDBRANCH  51  52
BRANCH  51  55
ATOM     55  N   CYS B   2      10.637  90.590  65.973  1.00  0.00    -0.345 N 
ATOM     56  H   CYS B   2      10.618  91.162  66.772  1.00  0.00     0.163 HD
ATOM     57  C   LYS B   1      11.647  90.715  65.106  1.00  0.00     0.254 C 
ATOM     58  O   LYS B   1      11.752  89.989  64.112  1.00  0.00    -0.271 OA
BRANCH  57  59
ATOM     59  CA  LYS B   1      12.684  91.763  65.435  1.00  0.00     0.350 C 
BRANCH  59  60
ATOM     60  N   LYS B   1      12.991  91.765  66.862  1.00  0.00     0.312 N 
ATOM     61  H   LYS B   1      13.619  90.934  67.094  1.00  0.00     0.359 HD
ENDBRANCH  59  60
BRANCH  59  62
ATOM     62  CB  LYS B   1      13.988  91.527  64.625  1.00  0.00     0.048 C 
BRANCH  62  63
ATOM     63  CG  LYS B   1      14.121  92.451  63.389  1.00  0.00     0.004 C 
BRANCH  63  64
ATOM     64  CD  LYS B   1      13.349  93.770  63.485  1.00  0.00     0.027 C 
BRANCH  64  65
ATOM     65  CE  LYS B   1      14.129  94.867  62.748  1.00  0.00     0.229 C 
BRANCH  65  66
ATOM     66  NZ  LYS B   1      13.405  95.244  61.522  1.00  0.00    -0.079 N 
ATOM     67  HZ3 LYS B   1      12.855  96.058  61.755  1.00  0.00     0.274 HD
ATOM     68  HZ2 LYS B   1      12.804  94.480  61.193  1.00  0.00     0.274 HD
ATOM     69  HZ1 LYS B   1      14.063  95.439  60.757  1.00  0.00     0.274 HD
ENDBRANCH  65  66
ENDBRANCH  64  65
ENDBRANCH  63  64
ENDBRANCH  62  63
ENDBRANCH  59  62
ENDBRANCH  57  59
ENDBRANCH  51  55
ENDBRANCH  49  51
ENDBRANCH  46  47
BRANCH  46  70
ATOM     70  CB  PHE B   3       7.773  91.893  62.205  1.00  0.00     0.073 C 
BRANCH  70  71
ATOM     71  CG  PHE B   3       6.612  92.837  61.852  1.00  0.00    -0.056 A 
ATOM     72  CD2 PHE B   3       6.372  93.213  60.529  1.00  0.00     0.007 A 
ATOM     73  CE2 PHE B   3       5.275  94.012  60.216  1.00  0.00     0.001 A 
ATOM     74  CZ  PHE B   3       4.411  94.433  61.226  1.00  0.00     0.000 A 
ATOM     75  CE1 PHE B   3       4.645  94.063  62.548  1.00  0.00     0.001 A 
ATOM     76  CD1 PHE B   3       5.746  93.274  62.862  1.00  0.00     0.007 A 
ENDBRANCH  70  71
ENDBRANCH  46  70
ENDBRANCH  43  46
ENDBRANCH   1  42
TORSDOF 30
ENDMDL
MODEL 3
REMARK VINA RESULT:      -7.0      2.679      8.675
REMARK  30 active torsions:
REMARK  status: ('A' for Active; 'I' for Inactive)
REMARK    1  A    between atoms: N_1  and  CA_2 
REMARK    2  A    between atoms: CA_2  and  CB_5 
REMARK    3  A    between atoms: CA_2  and  C_3 
REMARK       I    between atoms: C_3  and  N_14 
REMARK    4  A    between atoms: CB_5  and  CG_6 
REMARK    5  A    between atoms: CG_6  and  CD_7 
REMARK    6  A    between atoms: CD_7  and  CE_8 
REMARK    7  A    between atoms: CE_8  and  NZ_9 
REMARK    8  A    between atoms: N_14  and  CA_15 
REMARK    9  A    between atoms: CA_15  and  CB_18 
REMARK   10  A    between atoms: CA_15  and  C_16 
REMARK       I    between atoms: C_16  and  N_22 
REMARK   11  A    between atoms: CB_18  and  SG_19 
REMARK   12  A    between atoms: N_22  and  CA_23 
REMARK   13  A    between atoms: CA_23  and  CB_26 
REMARK   14  A    between atoms: CA_23  and  C_24 
REMARK       I    between atoms: C_24  and  N_34 
REMARK   15  A    between atoms: CB_26  and  CG_27 
REMARK   16  A    between atoms: N_34  and  CA_35 
REMARK   17  A    between atoms: CA_35  and  CB_38 
REMARK   18  A    between atoms: CA_35  and  C_36 
REMARK       I    between atoms: C_36  and  N_49 
REMARK   19  A    between atoms: CB_38  and  CG_39 
REMARK   20  A    between atoms: CA_43  and  N_49 
REMARK   21  A    between atoms: CA_43  and  CB_45 
REMARK   22  A    between atoms: CA_43  and  C_44 
REMARK       I    between atoms: C_44  and  N_65 
REMARK   23  A    between atoms: CB_45  and  OG1_51 
REMARK   24  A    between atoms: CA_52  and  CB_54 
REMARK   25  A    between atoms: CA_52  and  N_65 
REMARK   26  A    between atoms: CA_52  and  C_53 
REMARK       I    between atoms: C_53  and  N_74 
REMARK   27  A    between atoms: CB_54  and  CG_55 
REMARK   28  A    between atoms: CA_68  and  N_74 
REMARK   29  A    between atoms: CA_68  and  CB_70 
REMARK   30  A    between atoms: CA_68  and  C_69 
ROOT
ATOM      1  CA  ASP B   4       5.640  87.758  59.007  1.00  0.00     0.186 C 
ENDROOT
BRANCH   1   2
ATOM      2  CB  ASP B   4       5.320  86.240  58.924  1.00  0.00     0.147 C 
BRANCH   2   3
ATOM      3  CG  ASP B   4       5.613  85.431  60.196  1.00  0.00     0.175 C 
ATOM      4  OD2 ASP B   4       4.733  85.367  61.080  1.00  0.00    -0.648 OA
ATOM      5  OD1 ASP B   4       6.700  84.825  60.294  1.00  0.00    -0.648 OA
ENDBRANCH   2   3
ENDBRANCH   1   2
BRANCH   1   6
ATOM      6  C   ASP B   4       4.406  88.585  58.744  1.00  0.00     0.241 C 
ATOM      7  O   ASP B   4       4.496  89.795  58.516  1.00  0.00    -0.271 OA
ATOM      8  N   THR B   5       3.239  87.950  58.813  1.00  7.70    -0.344 N 
ATOM      9  H   THR B   5       3.234  86.990  59.010  1.00  0.23     0.163 HD
BRANCH   8  10
ATOM     10  CA  THR B   5       1.969  88.636  58.592  1.00  7.88     0.205 C 
BRANCH  10  11
ATOM     11  CB  THR B   5       1.078  87.815  57.658  1.00  4.05     0.146 C 
ATOM     12  CG2 THR B   5       0.527  88.617  56.499  1.00  3.72     0.042 C 
BRANCH  11  13
ATOM     13  OG1 THR B   5       1.794  86.718  57.119  1.00  7.31    -0.393 OA
ATOM     14  HG1 THR B   5       1.231  86.237  56.509  1.00  0.23     0.210 HD
ENDBRANCH  11  13
ENDBRANCH  10  11
BRANCH  10  15
ATOM     15  C   THR B   5       1.251  88.877  59.917  1.00  7.05     0.243 C 
ATOM     16  N   TRP B   6       1.824  88.360  60.998  1.00  0.00    -0.346 N 
ATOM     17  H   TRP B   6       2.662  87.860  60.904  1.00  0.23     0.163 HD
ATOM     18  O   THR B   5       0.200  89.515  59.956  1.00  6.06    -0.271 OA
BRANCH  16  19
ATOM     19  CA  TRP B   6       1.236  88.517  62.322  1.00  0.00     0.181 C 
BRANCH  19  20
ATOM     20  CB  TRP B   6       0.327  87.329  62.640  1.00  0.00     0.075 C 
BRANCH  20  21
ATOM     21  CG  TRP B   6       0.937  86.012  62.271  1.00  0.00    -0.028 A 
ATOM     22  CD2 TRP B   6       1.491  85.043  63.170  1.00  0.00    -0.002 A 
ATOM     23  CE2 TRP B   6       1.941  83.961  62.390  1.00  0.00     0.042 A 
ATOM     24  CE3 TRP B   6       1.651  84.987  64.557  1.00  0.00     0.014 A 
ATOM     25  CZ2 TRP B   6       2.538  82.836  62.952  1.00  0.00     0.030 A 
ATOM     26  NE1 TRP B   6       1.672  84.258  61.079  1.00  0.00    -0.365 N 
ATOM     27  CH2 TRP B   6       2.683  82.807  64.312  1.00  0.00     0.002 A 
ATOM     28  CZ3 TRP B   6       2.245  83.868  65.114  1.00  0.00     0.001 A 
ATOM     29  HE1 TRP B   6       1.877  83.685  60.310  1.00  0.23     0.165 HD
ATOM     30  CD1 TRP B   6       1.070  85.491  61.017  1.00  0.00     0.096 A 
ENDBRANCH  20  21
ENDBRANCH  19  20
BRANCH  19  31
ATOM     31  C   TRP B   6       2.319  88.651  63.388  1.00  0.00     0.241 C 
ATOM     32  N   VAL B   7       1.932  89.158  64.554  1.00  6.11    -0.344 N 
ATOM     33  H   VAL B   7       0.995  89.415  64.675  1.00  0.23     0.163 HD
ATOM     34  O   TRP B   6       3.478  88.306  63.156  1.00  0.00    -0.271 OA
BRANCH  32  35
ATOM     35  CA  VAL B   7       2.867  89.342  65.657  1.00  5.65     0.189 C 
BRANCH  35  36
ATOM     36  CB  VAL B   7       2.693  90.728  66.310  1.00  1.15     0.010 C 
ATOM     37  CG1 VAL B   7       3.561  91.761  65.607  1.00  4.96     0.012 C 
ATOM     38  CG2 VAL B   7       1.231  91.150  66.293  1.00  9.83     0.012 C 
ENDBRANCH  35  36
BRANCH  35  39
ATOM     39  C   VAL B   7       2.684  88.263  66.721  1.00  4.44     0.197 C 
ATOM     40  OXT VAL B   7       3.637  88.021  67.488  1.00  0.00    -0.646 OA
ATOM     41  O   VAL B   7       1.586  87.671  66.776  1.00  0.00    -0.646 OA
ENDBRANCH  35  39
ENDBRANCH  32  35
ENDBRANCH  19  31
ENDBRANCH  16  19
ENDBRANCH  10  15
ENDBRANCH   8  10
ENDBRANCH   1   6
BRANCH   1  42
ATOM     42  N   ASP B   4       6.226  88.089  60.304  1.00  0.00    -0.345 N 
ATOM     43  C   PHE B   3       7.447  88.592  60.423  1.00  0.00     0.241 C 
ATOM     44  O   PHE B   3       8.160  88.811  59.430  1.00  0.00    -0.271 OA
ATOM     45  H   ASP B   4       5.694  87.932  61.119  1.00  0.00     0.163 HD
BRANCH  43  46
ATOM     46  CA  PHE B   3       7.944  88.928  61.809  1.00  0.00     0.180 C 
BRANCH  46  47
ATOM     47  N   PHE B   3       7.908  90.369  62.042  1.00  0.00    -0.346 N 
ATOM     48  H   PHE B   3       8.732  90.834  62.288  1.00  0.00     0.163 HD
ATOM     49  C   CYS B   2       6.767  91.073  61.926  1.00  0.00     0.241 C 
ATOM     50  O   CYS B   2       5.700  90.551  61.614  1.00  0.00    -0.271 OA
BRANCH  49  51
ATOM     51  CA  CYS B   2       6.867  92.548  62.240  1.00  0.00     0.185 C 
BRANCH  51  52
ATOM     52  CB  CYS B   2       6.047  93.415  61.265  1.00  0.00     0.105 C 
BRANCH  52  53
ATOM     53  SG  CYS B   2       4.574  94.074  62.079  1.00  0.00    -0.180 SA
ATOM     54  HG  CYS B   2       4.071  94.697  61.016  1.00  0.00     0.101 HD
ENDBRANCH  52  53
ENDBRANCH  51  52
BRANCH  51  55
ATOM     55  N   CYS B   2       8.257  92.996  62.203  1.00  0.00    -0.345 N 
ATOM     56  H   CYS B   2       8.705  93.103  61.335  1.00  0.00     0.163 HD
ATOM     57  C   LYS B   1       8.934  93.266  63.323  1.00  0.00     0.254 C 
ATOM     58  O   LYS B   1       8.408  93.202  64.440  1.00  0.00    -0.271 OA
BRANCH  57  59
ATOM     59  CA  LYS B   1      10.369  93.703  63.147  1.00  0.00     0.350 C 
BRANCH  59  60
ATOM     60  N   LYS B   1      10.472  94.778  62.165  1.00  0.00     0.312 N 
ATOM     61  H   LYS B   1      10.416  94.370  61.180  1.00  0.00     0.359 HD
ENDBRANCH  59  60
BRANCH  59  62
ATOM     62  CB  LYS B   1      10.975  94.176  64.497  1.00  0.00     0.048 C 
BRANCH  62  63
ATOM     63  CG  LYS B   1      11.965  93.159  65.118  1.00  0.00     0.004 C 
BRANCH  63  64
ATOM     64  CD  LYS B   1      12.442  92.061  64.164  1.00  0.00     0.027 C 
BRANCH  64  65
ATOM     65  CE  LYS B   1      11.986  90.695  64.696  1.00  0.00     0.229 C 
BRANCH  65  66
ATOM     66  NZ  LYS B   1      11.390  89.916  63.597  1.00  0.00    -0.079 N 
ATOM     67  HZ3 LYS B   1      10.392  89.917  63.757  1.00  0.00     0.274 HD
ATOM     68  HZ2 LYS B   1      11.754  88.958  63.577  1.00  0.00     0.274 HD
ATOM     69  HZ1 LYS B   1      11.627  90.330  62.688  1.00  0.00     0.274 HD
ENDBRANCH  65  66
ENDBRANCH  64  65
ENDBRANCH  63  64
ENDBRANCH  62  63
ENDBRANCH  59  62
ENDBRANCH  57  59
ENDBRANCH  51  55
ENDBRANCH  49  51
ENDBRANCH  46  47
BRANCH  46  70
ATOM     70  CB  PHE B   3       7.051  88.195  62.855  1.00  0.00     0.073 C 
BRANCH  70  71
ATOM     71  CG  PHE B   3       7.369  88.462  64.335  1.00  0.00    -0.056 A 
ATOM     72  CD2 PHE B   3       8.578  88.043  64.893  1.00  0.00     0.007 A 
ATOM     73  CE2 PHE B   3       8.883  88.354  66.216  1.00  0.00     0.001 A 
ATOM     74  CZ  PHE B   3       7.981  89.090  66.984  1.00  0.00     0.000 A 
ATOM     75  CE1 PHE B   3       6.773  89.510  66.432  1.00  0.00     0.001 A 
ATOM     76  CD1 PHE B   3       6.464  89.190  65.115  1.00  0.00     0.007 A 
ENDBRANCH  70  71
ENDBRANCH  46  70
ENDBRANCH  43  46
ENDBRANCH   1  42
TORSDOF 30
ENDMDL
MODEL 4
REMARK VINA RESULT:      -6.9      2.896      9.514
REMARK  30 active torsions:
REMARK  status: ('A' for Active; 'I' for Inactive)
REMARK    1  A    between atoms: N_1  and  CA_2 
REMARK    2  A    between atoms: CA_2  and  CB_5 
REMARK    3  A    between atoms: CA_2  and  C_3 
REMARK       I    between atoms: C_3  and  N_14 
REMARK    4  A    between atoms: CB_5  and  CG_6 
REMARK    5  A    between atoms: CG_6  and  CD_7 
REMARK    6  A    between atoms: CD_7  and  CE_8 
REMARK    7  A    between atoms: CE_8  and  NZ_9 
REMARK    8  A    between atoms: N_14  and  CA_15 
REMARK    9  A    between atoms: CA_15  and  CB_18 
REMARK   10  A    between atoms: CA_15  and  C_16 
REMARK       I    between atoms: C_16  and  N_22 
REMARK   11  A    between atoms: CB_18  and  SG_19 
REMARK   12  A    between atoms: N_22  and  CA_23 
REMARK   13  A    between atoms: CA_23  and  CB_26 
REMARK   14  A    between atoms: CA_23  and  C_24 
REMARK       I    between atoms: C_24  and  N_34 
REMARK   15  A    between atoms: CB_26  and  CG_27 
REMARK   16  A    between atoms: N_34  and  CA_35 
REMARK   17  A    between atoms: CA_35  and  CB_38 
REMARK   18  A    between atoms: CA_35  and  C_36 
REMARK       I    between atoms: C_36  and  N_49 
REMARK   19  A    between atoms: CB_38  and  CG_39 
REMARK   20  A    between atoms: CA_43  and  N_49 
REMARK   21  A    between atoms: CA_43  and  CB_45 
REMARK   22  A    between atoms: CA_43  and  C_44 
REMARK       I    between atoms: C_44  and  N_65 
REMARK   23  A    between atoms: CB_45  and  OG1_51 
REMARK   24  A    between atoms: CA_52  and  CB_54 
REMARK   25  A    between atoms: CA_52  and  N_65 
REMARK   26  A    between atoms: CA_52  and  C_53 
REMARK       I    between atoms: C_53  and  N_74 
REMARK   27  A    between atoms: CB_54  and  CG_55 
REMARK   28  A    between atoms: CA_68  and  N_74 
REMARK   29  A    between atoms: CA_68  and  CB_70 
REMARK   30  A    between atoms: CA_68  and  C_69 
ROOT
ATOM      1  CA  ASP B   4       5.896  88.867  59.236  1.00  0.00     0.186 C 
ENDROOT
BRANCH   1   2
ATOM      2  CB  ASP B   4       6.594  87.863  58.276  1.00  0.00     0.147 C 
BRANCH   2   3
ATOM      3  CG  ASP B   4       6.690  86.418  58.785  1.00  0.00     0.175 C 
ATOM      4  OD2 ASP B   4       7.619  86.118  59.563  1.00  0.00    -0.648 OA
ATOM      5  OD1 ASP B   4       5.814  85.595  58.446  1.00  0.00    -0.648 OA
ENDBRANCH   2   3
ENDBRANCH   1   2
BRANCH   1   6
ATOM      6  C   ASP B   4       4.412  88.929  58.966  1.00  0.00     0.241 C 
ATOM      7  O   ASP B   4       3.887  89.975  58.576  1.00  0.00    -0.271 OA
ATOM      8  N   THR B   5       3.717  87.821  59.210  1.00  7.70    -0.344 N 
ATOM      9  H   THR B   5       4.192  87.026  59.531  1.00  0.23     0.163 HD
BRANCH   8  10
ATOM     10  CA  THR B   5       2.273  87.750  59.004  1.00  7.88     0.205 C 
BRANCH  10  11
ATOM     11  CB  THR B   5       1.921  86.547  58.128  1.00  4.05     0.146 C 
ATOM     12  CG2 THR B   5       1.156  86.923  56.877  1.00  3.72     0.042 C 
BRANCH  11  13
ATOM     13  OG1 THR B   5       3.093  85.861  57.725  1.00  7.31    -0.393 OA
ATOM     14  HG1 THR B   5       3.822  86.111  58.296  1.00  0.23     0.210 HD
ENDBRANCH  11  13
ENDBRANCH  10  11
BRANCH  10  15
ATOM     15  C   THR B   5       1.544  87.652  60.340  1.00  7.05     0.243 C 
ATOM     16  N   TRP B   6       2.293  87.368  61.400  1.00  0.00    -0.346 N 
ATOM     17  H   TRP B   6       3.258  87.237  61.283  1.00  0.23     0.163 HD
ATOM     18  O   THR B   5       0.328  87.828  60.408  1.00  6.06    -0.271 OA
BRANCH  16  19
ATOM     19  CA  TRP B   6       1.716  87.243  62.732  1.00  0.00     0.181 C 
BRANCH  19  20
ATOM     20  CB  TRP B   6       2.197  85.952  63.397  1.00  0.00     0.075 C 
BRANCH  20  21
ATOM     21  CG  TRP B   6       1.477  84.736  62.901  1.00  0.00    -0.028 A 
ATOM     22  CD2 TRP B   6       1.909  83.375  63.026  1.00  0.00    -0.002 A 
ATOM     23  CE2 TRP B   6       0.922  82.569  62.426  1.00  0.00     0.042 A 
ATOM     24  CE3 TRP B   6       3.033  82.762  63.585  1.00  0.00     0.014 A 
ATOM     25  CZ2 TRP B   6       1.028  81.182  62.372  1.00  0.00     0.030 A 
ATOM     26  NE1 TRP B   6      -0.062  83.401  61.959  1.00  0.00    -0.365 N 
ATOM     27  CH2 TRP B   6       2.139  80.607  62.926  1.00  0.00     0.002 A 
ATOM     28  CZ3 TRP B   6       3.135  81.383  63.529  1.00  0.00     0.001 A 
ATOM     29  HE1 TRP B   6      -0.877  83.116  61.494  1.00  0.23     0.165 HD
ATOM     30  CD1 TRP B   6       0.279  84.700  62.248  1.00  0.00     0.096 A 
ENDBRANCH  20  21
ENDBRANCH  19  20
BRANCH  19  31
ATOM     31  C   TRP B   6       2.075  88.446  63.597  1.00  0.00     0.241 C 
ATOM     32  N   VAL B   7       2.274  88.199  64.889  1.00  6.11    -0.344 N 
ATOM     33  H   VAL B   7       2.185  87.281  65.218  1.00  0.23     0.163 HD
ATOM     34  O   TRP B   6       2.166  89.572  63.106  1.00  0.00    -0.271 OA
BRANCH  32  35
ATOM     35  CA  VAL B   7       2.620  89.259  65.827  1.00  5.65     0.189 C 
BRANCH  35  36
ATOM     36  CB  VAL B   7       1.395  90.136  66.153  1.00  1.15     0.010 C 
ATOM     37  CG1 VAL B   7       0.610  89.545  67.315  1.00  4.96     0.012 C 
ATOM     38  CG2 VAL B   7       1.822  91.563  66.461  1.00  9.83     0.012 C 
ENDBRANCH  35  36
BRANCH  35  39
ATOM     39  C   VAL B   7       3.182  88.685  67.124  1.00  4.44     0.197 C 
ATOM     40  OXT VAL B   7       3.876  89.428  67.848  1.00  0.00    -0.646 OA
ATOM     41  O   VAL B   7       2.921  87.497  67.404  1.00  0.00    -0.646 OA
ENDBRANCH  35  39
ENDBRANCH  32  35
ENDBRANCH  19  31
ENDBRANCH  16  19
ENDBRANCH  10  15
ENDBRANCH   8  10
ENDBRANCH   1   6
BRANCH   1  42
ATOM     42  N   ASP B   4       6.161  88.514  60.628  1.00  0.00    -0.345 N 
ATOM     43  C   PHE B   3       6.769  89.342  61.466  1.00  0.00     0.241 C 
ATOM     44  O   PHE B   3       7.147  90.469  61.108  1.00  0.00    -0.271 OA
ATOM     45  H   ASP B   4       5.877  87.628  60.956  1.00  0.00     0.163 HD
BRANCH  43  46
ATOM     46  CA  PHE B   3       6.965  88.890  62.894  1.00  0.00     0.180 C 
BRANCH  46  47
ATOM     47  N   PHE B   3       8.123  89.545  63.495  1.00  0.00    -0.346 N 
ATOM     48  H   PHE B   3       8.367  90.446  63.204  1.00  0.00     0.163 HD
ATOM     49  C   CYS B   2       8.862  88.939  64.442  1.00  0.00     0.241 C 
ATOM     50  O   CYS B   2       8.605  87.811  64.856  1.00  0.00    -0.271 OA
BRANCH  49  51
ATOM     51  CA  CYS B   2      10.057  89.716  64.944  1.00  0.00     0.185 C 
BRANCH  51  52
ATOM     52  CB  CYS B   2      10.131  89.753  66.483  1.00  0.00     0.105 C 
BRANCH  52  53
ATOM     53  SG  CYS B   2       9.044  91.037  67.145  1.00  0.00    -0.180 SA
ATOM     54  HG  CYS B   2       9.967  91.990  67.247  1.00  0.00     0.101 HD
ENDBRANCH  52  53
ENDBRANCH  51  52
BRANCH  51  55
ATOM     55  N   CYS B   2      10.034  91.088  64.447  1.00  0.00    -0.345 N 
ATOM     56  H   CYS B   2       9.181  91.576  64.423  1.00  0.00     0.163 HD
ATOM     57  C   LYS B   1      11.146  91.697  64.023  1.00  0.00     0.254 C 
ATOM     58  O   LYS B   1      12.254  91.153  64.078  1.00  0.00    -0.271 OA
BRANCH  57  59
ATOM     59  CA  LYS B   1      10.981  93.111  63.516  1.00  0.00     0.350 C 
BRANCH  59  60
ATOM     60  N   LYS B   1       9.606  93.570  63.685  1.00  0.00     0.312 N 
ATOM     61  H   LYS B   1       9.416  93.759  64.718  1.00  0.00     0.359 HD
ENDBRANCH  59  60
BRANCH  59  62
ATOM     62  CB  LYS B   1      11.945  94.081  64.253  1.00  0.00     0.048 C 
BRANCH  62  63
ATOM     63  CG  LYS B   1      13.413  93.972  63.773  1.00  0.00     0.004 C 
BRANCH  63  64
ATOM     64  CD  LYS B   1      13.710  94.671  62.443  1.00  0.00     0.027 C 
BRANCH  64  65
ATOM     65  CE  LYS B   1      12.762  95.866  62.277  1.00  0.00     0.229 C 
BRANCH  65  66
ATOM     66  NZ  LYS B   1      12.335  95.961  60.871  1.00  0.00    -0.079 N 
ATOM     67  HZ3 LYS B   1      12.566  96.897  60.566  1.00  0.00     0.274 HD
ATOM     68  HZ2 LYS B   1      11.330  95.784  60.772  1.00  0.00     0.274 HD
ATOM     69  HZ1 LYS B   1      12.808  95.251  60.299  1.00  0.00     0.274 HD
ENDBRANCH  65  66
ENDBRANCH  64  65
ENDBRANCH  63  64
ENDBRANCH  62  63
ENDBRANCH  59  62
ENDBRANCH  57  59
ENDBRANCH  51  55
ENDBRANCH  49  51
ENDBRANCH  46  47
BRANCH  46  70
ATOM     70  CB  PHE B   3       5.679  89.223  63.708  1.00  0.00     0.073 C 
BRANCH  70  71
ATOM     71  CG  PHE B   3       5.525  90.677  64.182  1.00  0.00    -0.056 A 
ATOM     72  CD2 PHE B   3       4.963  91.645  63.347  1.00  0.00     0.007 A 
ATOM     73  CE2 PHE B   3       4.765  92.942  63.814  1.00  0.00     0.001 A 
ATOM     74  CZ  PHE B   3       5.124  93.274  65.120  1.00  0.00     0.000 A 
ATOM     75  CE1 PHE B   3       5.686  92.313  65.957  1.00  0.00     0.001 A 
ATOM     76  CD1 PHE B   3       5.894  91.021  65.487  1.00  0.00     0.007 A 
ENDBRANCH  70  71
ENDBRANCH  46  70
ENDBRANCH  43  46
ENDBRANCH   1  42
TORSDOF 30
ENDMDL
MODEL 5
REMARK VINA RESULT:      -6.6      3.176      8.681
REMARK  30 active torsions:
REMARK  status: ('A' for Active; 'I' for Inactive)
REMARK    1  A    between atoms: N_1  and  CA_2 
REMARK    2  A    between atoms: CA_2  and  CB_5 
REMARK    3  A    between atoms: CA_2  and  C_3 
REMARK       I    between atoms: C_3  and  N_14 
REMARK    4  A    between atoms: CB_5  and  CG_6 
REMARK    5  A    between atoms: CG_6  and  CD_7 
REMARK    6  A    between atoms: CD_7  and  CE_8 
REMARK    7  A    between atoms: CE_8  and  NZ_9 
REMARK    8  A    between atoms: N_14  and  CA_15 
REMARK    9  A    between atoms: CA_15  and  CB_18 
REMARK   10  A    between atoms: CA_15  and  C_16 
REMARK       I    between atoms: C_16  and  N_22 
REMARK   11  A    between atoms: CB_18  and  SG_19 
REMARK   12  A    between atoms: N_22  and  CA_23 
REMARK   13  A    between atoms: CA_23  and  CB_26 
REMARK   14  A    between atoms: CA_23  and  C_24 
REMARK       I    between atoms: C_24  and  N_34 
REMARK   15  A    between atoms: CB_26  and  CG_27 
REMARK   16  A    between atoms: N_34  and  CA_35 
REMARK   17  A    between atoms: CA_35  and  CB_38 
REMARK   18  A    between atoms: CA_35  and  C_36 
REMARK       I    between atoms: C_36  and  N_49 
REMARK   19  A    between atoms: CB_38  and  CG_39 
REMARK   20  A    between atoms: CA_43  and  N_49 
REMARK   21  A    between atoms: CA_43  and  CB_45 
REMARK   22  A    between atoms: CA_43  and  C_44 
REMARK       I    between atoms: C_44  and  N_65 
REMARK   23  A    between atoms: CB_45  and  OG1_51 
REMARK   24  A    between atoms: CA_52  and  CB_54 
REMARK   25  A    between atoms: CA_52  and  N_65 
REMARK   26  A    between atoms: CA_52  and  C_53 
REMARK       I    between atoms: C_53  and  N_74 
REMARK   27  A    between atoms: CB_54  and  CG_55 
REMARK   28  A    between atoms: CA_68  and  N_74 
REMARK   29  A    between atoms: CA_68  and  CB_70 
REMARK   30  A    between atoms: CA_68  and  C_69 
ROOT
ATOM      1  CA  ASP B   4       6.451  88.240  59.526  1.00  0.00     0.186 C 
ENDROOT
BRANCH   1   2
ATOM      2  CB  ASP B   4       6.853  87.011  58.664  1.00  0.00     0.147 C 
BRANCH   2   3
ATOM      3  CG  ASP B   4       6.606  85.640  59.309  1.00  0.00     0.175 C 
ATOM      4  OD2 ASP B   4       5.691  85.533  60.153  1.00  0.00    -0.648 OA
ATOM      5  OD1 ASP B   4       7.292  84.664  58.943  1.00  0.00    -0.648 OA
ENDBRANCH   2   3
ENDBRANCH   1   2
BRANCH   1   6
ATOM      6  C   ASP B   4       5.014  88.627  59.276  1.00  0.00     0.241 C 
ATOM      7  O   ASP B   4       4.734  89.522  58.474  1.00  0.00    -0.271 OA
ATOM      8  N   THR B   5       4.092  87.986  59.990  1.00  7.70    -0.344 N 
ATOM      9  H   THR B   5       4.381  87.293  60.621  1.00  0.23     0.163 HD
BRANCH   8  10
ATOM     10  CA  THR B   5       2.668  88.274  59.856  1.00  7.88     0.205 C 
BRANCH  10  11
ATOM     11  CB  THR B   5       2.046  87.382  58.779  1.00  4.05     0.146 C 
ATOM     12  CG2 THR B   5       2.464  85.932  58.890  1.00  3.72     0.042 C 
BRANCH  11  13
ATOM     13  OG1 THR B   5       0.631  87.427  58.848  1.00  7.31    -0.393 OA
ATOM     14  HG1 THR B   5       0.355  87.430  59.767  1.00  0.23     0.210 HD
ENDBRANCH  11  13
ENDBRANCH  10  11
BRANCH  10  15
ATOM     15  C   THR B   5       1.949  88.064  61.184  1.00  7.05     0.243 C 
ATOM     16  N   TRP B   6       2.670  87.532  62.166  1.00  0.00    -0.346 N 
ATOM     17  H   TRP B   6       3.609  87.304  62.001  1.00  0.23     0.163 HD
ATOM     18  O   THR B   5       0.765  88.374  61.316  1.00  6.06    -0.271 OA
BRANCH  16  19
ATOM     19  CA  TRP B   6       2.098  87.278  63.482  1.00  0.00     0.181 C 
BRANCH  19  20
ATOM     20  CB  TRP B   6       1.002  88.300  63.788  1.00  0.00     0.075 C 
BRANCH  20  21
ATOM     21  CG  TRP B   6       1.339  89.188  64.946  1.00  0.00    -0.028 A 
ATOM     22  CD2 TRP B   6       2.286  88.918  65.986  1.00  0.00    -0.002 A 
ATOM     23  CE2 TRP B   6       2.281  90.027  66.853  1.00  0.00     0.042 A 
ATOM     24  CE3 TRP B   6       3.135  87.845  66.269  1.00  0.00     0.014 A 
ATOM     25  CZ2 TRP B   6       3.094  90.093  67.981  1.00  0.00     0.030 A 
ATOM     26  NE1 TRP B   6       1.373  90.930  66.362  1.00  0.00    -0.365 N 
ATOM     27  CH2 TRP B   6       3.916  89.029  68.235  1.00  0.00     0.002 A 
ATOM     28  CZ3 TRP B   6       3.942  87.913  67.391  1.00  0.00     0.001 A 
ATOM     29  HE1 TRP B   6       1.159  91.799  66.762  1.00  0.23     0.165 HD
ATOM     30  CD1 TRP B   6       0.813  90.418  65.217  1.00  0.00     0.096 A 
ENDBRANCH  20  21
ENDBRANCH  19  20
BRANCH  19  31
ATOM     31  C   TRP B   6       1.536  85.862  63.568  1.00  0.00     0.241 C 
ATOM     32  N   VAL B   7       2.388  84.918  63.956  1.00  6.11    -0.344 N 
ATOM     33  H   VAL B   7       3.312  85.166  64.165  1.00  0.23     0.163 HD
ATOM     34  O   TRP B   6       0.360  85.632  63.285  1.00  0.00    -0.271 OA
BRANCH  32  35
ATOM     35  CA  VAL B   7       1.982  83.524  64.077  1.00  5.65     0.189 C 
BRANCH  35  36
ATOM     36  CB  VAL B   7       3.145  82.573  63.731  1.00  1.15     0.010 C 
ATOM     37  CG1 VAL B   7       2.613  81.222  63.276  1.00  4.96     0.012 C 
ATOM     38  CG2 VAL B   7       4.042  83.186  62.666  1.00  9.83     0.012 C 
ENDBRANCH  35  36
BRANCH  35  39
ATOM     39  C   VAL B   7       1.488  83.214  65.487  1.00  4.44     0.197 C 
ATOM     40  OXT VAL B   7       2.334  82.977  66.372  1.00  0.00    -0.646 OA
ATOM     41  O   VAL B   7       0.256  83.213  65.691  1.00  0.00    -0.646 OA
ENDBRANCH  35  39
ENDBRANCH  32  35
ENDBRANCH  19  31
ENDBRANCH  16  19
ENDBRANCH  10  15
ENDBRANCH   8  10
ENDBRANCH   1   6
BRANCH   1  42
ATOM     42  N   ASP B   4       6.682  87.970  60.943  1.00  0.00    -0.345 N 
ATOM     43  C   PHE B   3       7.169  88.886  61.769  1.00  0.00     0.241 C 
ATOM     44  O   PHE B   3       7.454  90.029  61.377  1.00  0.00    -0.271 OA
ATOM     45  H   ASP B   4       6.468  87.075  61.297  1.00  0.00     0.163 HD
BRANCH  43  46
ATOM     46  CA  PHE B   3       7.339  88.512  63.222  1.00  0.00     0.180 C 
BRANCH  46  47
ATOM     47  N   PHE B   3       8.284  89.406  63.884  1.00  0.00    -0.346 N 
ATOM     48  H   PHE B   3       8.332  90.342  63.607  1.00  0.00     0.163 HD
ATOM     49  C   CYS B   2       9.092  88.972  64.870  1.00  0.00     0.241 C 
ATOM     50  O   CYS B   2       9.077  87.812  65.269  1.00  0.00    -0.271 OA
BRANCH  49  51
ATOM     51  CA  CYS B   2      10.051  89.995  65.434  1.00  0.00     0.185 C 
BRANCH  51  52
ATOM     52  CB  CYS B   2      10.148  89.926  66.970  1.00  0.00     0.105 C 
BRANCH  52  53
ATOM     53  SG  CYS B   2       8.737  90.755  67.738  1.00  0.00    -0.180 SA
ATOM     54  HG  CYS B   2       8.516  89.847  68.686  1.00  0.00     0.101 HD
ENDBRANCH  52  53
ENDBRANCH  51  52
BRANCH  51  55
ATOM     55  N   CYS B   2       9.655  91.348  65.054  1.00  0.00    -0.345 N 
ATOM     56  H   CYS B   2       8.848  91.743  65.453  1.00  0.00     0.163 HD
ATOM     57  C   LYS B   1      10.365  92.063  64.176  1.00  0.00     0.254 C 
ATOM     58  O   LYS B   1      11.416  91.641  63.682  1.00  0.00    -0.271 OA
BRANCH  57  59
ATOM     59  CA  LYS B   1       9.836  93.442  63.856  1.00  0.00     0.350 C 
BRANCH  59  60
ATOM     60  N   LYS B   1      10.930  94.390  63.666  1.00  0.00     0.312 N 
ATOM     61  H   LYS B   1      10.923  95.107  64.458  1.00  0.00     0.359 HD
ENDBRANCH  59  60
BRANCH  59  62
ATOM     62  CB  LYS B   1       8.950  93.414  62.581  1.00  0.00     0.048 C 
BRANCH  62  63
ATOM     63  CG  LYS B   1       7.472  93.047  62.867  1.00  0.00     0.004 C 
BRANCH  63  64
ATOM     64  CD  LYS B   1       6.492  93.402  61.745  1.00  0.00     0.027 C 
BRANCH  64  65
ATOM     65  CE  LYS B   1       7.281  93.769  60.481  1.00  0.00     0.229 C 
BRANCH  65  66
ATOM     66  NZ  LYS B   1       6.484  94.694  59.657  1.00  0.00    -0.079 N 
ATOM     67  HZ3 LYS B   1       6.972  94.783  58.777  1.00  0.00     0.274 HD
ATOM     68  HZ2 LYS B   1       6.382  95.607  60.112  1.00  0.00     0.274 HD
ATOM     69  HZ1 LYS B   1       5.531  94.333  59.525  1.00  0.00     0.274 HD
ENDBRANCH  65  66
ENDBRANCH  64  65
ENDBRANCH  63  64
ENDBRANCH  62  63
ENDBRANCH  59  62
ENDBRANCH  57  59
ENDBRANCH  51  55
ENDBRANCH  49  51
ENDBRANCH  46  47
BRANCH  46  70
ATOM     70  CB  PHE B   3       5.951  88.584  63.926  1.00  0.00     0.073 C 
BRANCH  70  71
ATOM     71  CG  PHE B   3       5.428  89.989  64.267  1.00  0.00    -0.056 A 
ATOM     72  CD2 PHE B   3       4.462  90.606  63.468  1.00  0.00     0.007 A 
ATOM     73  CE2 PHE B   3       3.947  91.848  63.828  1.00  0.00     0.001 A 
ATOM     74  CZ  PHE B   3       4.390  92.476  64.991  1.00  0.00     0.000 A 
ATOM     75  CE1 PHE B   3       5.354  91.866  65.791  1.00  0.00     0.001 A 
ATOM     76  CD1 PHE B   3       5.877  90.631  65.426  1.00  0.00     0.007 A 
ENDBRANCH  70  71
ENDBRANCH  46  70
ENDBRANCH  43  46
ENDBRANCH   1  42
TORSDOF 30
ENDMDL
MODEL 6
REMARK VINA RESULT:      -6.2      3.390      9.298
REMARK  30 active torsions:
REMARK  status: ('A' for Active; 'I' for Inactive)
REMARK    1  A    between atoms: N_1  and  CA_2 
REMARK    2  A    between atoms: CA_2  and  CB_5 
REMARK    3  A    between atoms: CA_2  and  C_3 
REMARK       I    between atoms: C_3  and  N_14 
REMARK    4  A    between atoms: CB_5  and  CG_6 
REMARK    5  A    between atoms: CG_6  and  CD_7 
REMARK    6  A    between atoms: CD_7  and  CE_8 
REMARK    7  A    between atoms: CE_8  and  NZ_9 
REMARK    8  A    between atoms: N_14  and  CA_15 
REMARK    9  A    between atoms: CA_15  and  CB_18 
REMARK   10  A    between atoms: CA_15  and  C_16 
REMARK       I    between atoms: C_16  and  N_22 
REMARK   11  A    between atoms: CB_18  and  SG_19 
REMARK   12  A    between atoms: N_22  and  CA_23 
REMARK   13  A    between atoms: CA_23  and  CB_26 
REMARK   14  A    between atoms: CA_23  and  C_24 
REMARK       I    between atoms: C_24  and  N_34 
REMARK   15  A    between atoms: CB_26  and  CG_27 
REMARK   16  A    between atoms: N_34  and  CA_35 
REMARK   17  A    between atoms: CA_35  and  CB_38 
REMARK   18  A    between atoms: CA_35  and  C_36 
REMARK       I    between atoms: C_36  and  N_49 
REMARK   19  A    between atoms: CB_38  and  CG_39 
REMARK   20  A    between atoms: CA_43  and  N_49 
REMARK   21  A    between atoms: CA_43  and  CB_45 
REMARK   22  A    between atoms: CA_43  and  C_44 
REMARK       I    between atoms: C_44  and  N_65 
REMARK   23  A    between atoms: CB_45  and  OG1_51 
REMARK   24  A    between atoms: CA_52  and  CB_54 
REMARK   25  A    between atoms: CA_52  and  N_65 
REMARK   26  A    between atoms: CA_52  and  C_53 
REMARK       I    between atoms: C_53  and  N_74 
REMARK   27  A    between atoms: CB_54  and  CG_55 
REMARK   28  A    between atoms: CA_68  and  N_74 
REMARK   29  A    between atoms: CA_68  and  CB_70 
REMARK   30  A    between atoms: CA_68  and  C_69 
ROOT
ATOM      1  CA  ASP B   4       6.587  87.532  60.321  1.00  0.00     0.186 C 
ENDROOT
BRANCH   1   2
ATOM      2  CB  ASP B   4       6.914  86.124  59.753  1.00  0.00     0.147 C 
BRANCH   2   3
ATOM      3  CG  ASP B   4       7.095  86.050  58.230  1.00  0.00     0.175 C 
ATOM      4  OD2 ASP B   4       7.223  84.928  57.696  1.00  0.00    -0.648 OA
ATOM      5  OD1 ASP B   4       7.063  87.105  57.563  1.00  0.00    -0.648 OA
ENDBRANCH   2   3
ENDBRANCH   1   2
BRANCH   1   6
ATOM      6  C   ASP B   4       5.175  87.939  59.975  1.00  0.00     0.241 C 
ATOM      7  O   ASP B   4       4.929  89.081  59.575  1.00  0.00    -0.271 OA
ATOM      8  N   THR B   5       4.229  87.023  60.164  1.00  7.70    -0.344 N 
ATOM      9  H   THR B   5       4.488  86.137  60.496  1.00  0.23     0.163 HD
BRANCH   8  10
ATOM     10  CA  THR B   5       2.822  87.291  59.882  1.00  7.88     0.205 C 
BRANCH  10  11
ATOM     11  CB  THR B   5       2.313  86.352  58.786  1.00  4.05     0.146 C 
ATOM     12  CG2 THR B   5       1.424  87.042  57.774  1.00  3.72     0.042 C 
BRANCH  11  13
ATOM     13  OG1 THR B   5       3.395  85.771  58.081  1.00  7.31    -0.393 OA
ATOM     14  HG1 THR B   5       3.505  84.859  58.359  1.00  0.23     0.210 HD
ENDBRANCH  11  13
ENDBRANCH  10  11
BRANCH  10  15
ATOM     15  C   THR B   5       1.980  87.124  61.142  1.00  7.05     0.243 C 
ATOM     16  N   TRP B   6       2.644  86.874  62.265  1.00  0.00    -0.346 N 
ATOM     17  H   TRP B   6       3.622  86.808  62.238  1.00  0.23     0.163 HD
ATOM     18  O   THR B   5       0.753  87.218  61.097  1.00  6.06    -0.271 OA
BRANCH  16  19
ATOM     19  CA  TRP B   6       1.955  86.690  63.536  1.00  0.00     0.181 C 
BRANCH  19  20
ATOM     20  CB  TRP B   6       0.839  87.725  63.685  1.00  0.00     0.075 C 
BRANCH  20  21
ATOM     21  CG  TRP B   6       0.700  88.236  65.086  1.00  0.00    -0.028 A 
ATOM     22  CD2 TRP B   6       1.337  89.392  65.643  1.00  0.00    -0.002 A 
ATOM     23  CE2 TRP B   6       0.915  89.496  66.982  1.00  0.00     0.042 A 
ATOM     24  CE3 TRP B   6       2.224  90.348  65.140  1.00  0.00     0.014 A 
ATOM     25  CZ2 TRP B   6       1.349  90.518  67.822  1.00  0.00     0.030 A 
ATOM     26  NE1 TRP B   6       0.061  88.452  67.227  1.00  0.00    -0.365 N 
ATOM     27  CH2 TRP B   6       2.217  91.440  67.304  1.00  0.00     0.002 A 
ATOM     28  CZ3 TRP B   6       2.654  91.363  65.976  1.00  0.00     0.001 A 
ATOM     29  HE1 TRP B   6      -0.389  88.270  68.079  1.00  0.23     0.165 HD
ATOM     30  CD1 TRP B   6      -0.062  87.701  66.083  1.00  0.00     0.096 A 
ENDBRANCH  20  21
ENDBRANCH  19  20
BRANCH  19  31
ATOM     31  C   TRP B   6       1.383  85.280  63.647  1.00  0.00     0.241 C 
ATOM     32  N   VAL B   7       2.243  84.327  63.995  1.00  6.11    -0.344 N 
ATOM     33  H   VAL B   7       3.178  84.566  64.161  1.00  0.23     0.163 HD
ATOM     34  O   TRP B   6       0.193  85.062  63.420  1.00  0.00    -0.271 OA
BRANCH  32  35
ATOM     35  CA  VAL B   7       1.829  82.937  64.135  1.00  5.65     0.189 C 
BRANCH  35  36
ATOM     36  CB  VAL B   7       2.977  81.975  63.774  1.00  1.15     0.010 C 
ATOM     37  CG1 VAL B   7       2.445  80.771  63.010  1.00  4.96     0.012 C 
ATOM     38  CG2 VAL B   7       4.049  82.694  62.969  1.00  9.83     0.012 C 
ENDBRANCH  35  36
BRANCH  35  39
ATOM     39  C   VAL B   7       1.359  82.642  65.556  1.00  4.44     0.197 C 
ATOM     40  OXT VAL B   7       2.149  82.856  66.497  1.00  0.00    -0.646 OA
ATOM     41  O   VAL B   7       0.201  82.200  65.714  1.00  0.00    -0.646 OA
ENDBRANCH  35  39
ENDBRANCH  32  35
ENDBRANCH  19  31
ENDBRANCH  16  19
ENDBRANCH  10  15
ENDBRANCH   8  10
ENDBRANCH   1   6
BRANCH   1  42
ATOM     42  N   ASP B   4       6.803  87.566  61.765  1.00  0.00    -0.345 N 
ATOM     43  C   PHE B   3       7.353  88.606  62.376  1.00  0.00     0.241 C 
ATOM     44  O   PHE B   3       7.715  89.613  61.746  1.00  0.00    -0.271 OA
ATOM     45  H   ASP B   4       6.528  86.788  62.305  1.00  0.00     0.163 HD
BRANCH  43  46
ATOM     46  CA  PHE B   3       7.501  88.551  63.878  1.00  0.00     0.180 C 
BRANCH  46  47
ATOM     47  N   PHE B   3       8.604  89.395  64.326  1.00  0.00    -0.346 N 
ATOM     48  H   PHE B   3       8.882  90.152  63.773  1.00  0.00     0.163 HD
ATOM     49  C   CYS B   2       9.247  89.158  65.484  1.00  0.00     0.241 C 
ATOM     50  O   CYS B   2       8.943  88.230  66.227  1.00  0.00    -0.271 OA
BRANCH  49  51
ATOM     51  CA  CYS B   2      10.399  90.085  65.801  1.00  0.00     0.185 C 
BRANCH  51  52
ATOM     52  CB  CYS B   2      10.704  90.150  67.310  1.00  0.00     0.105 C 
BRANCH  52  53
ATOM     53  SG  CYS B   2       9.218  90.580  68.245  1.00  0.00    -0.180 SA
ATOM     54  HG  CYS B   2       8.339  90.039  67.406  1.00  0.00     0.101 HD
ENDBRANCH  52  53
ENDBRANCH  51  52
BRANCH  51  55
ATOM     55  N   CYS B   2      10.127  91.438  65.324  1.00  0.00    -0.345 N 
ATOM     56  H   CYS B   2       9.268  91.862  65.545  1.00  0.00     0.163 HD
ATOM     57  C   LYS B   1      11.018  92.114  64.593  1.00  0.00     0.254 C 
ATOM     58  O   LYS B   1      12.134  91.653  64.327  1.00  0.00    -0.271 OA
BRANCH  57  59
ATOM     59  CA  LYS B   1      10.605  93.497  64.147  1.00  0.00     0.350 C 
BRANCH  59  60
ATOM     60  N   LYS B   1       9.541  94.024  64.996  1.00  0.00     0.312 N 
ATOM     61  H   LYS B   1       8.593  93.708  64.619  1.00  0.00     0.359 HD
ENDBRANCH  59  60
BRANCH  59  62
ATOM     62  CB  LYS B   1      11.814  94.471  64.168  1.00  0.00     0.048 C 
BRANCH  62  63
ATOM     63  CG  LYS B   1      12.524  94.603  62.797  1.00  0.00     0.004 C 
BRANCH  63  64
ATOM     64  CD  LYS B   1      12.869  96.036  62.386  1.00  0.00     0.027 C 
BRANCH  64  65
ATOM     65  CE  LYS B   1      12.072  96.408  61.128  1.00  0.00     0.229 C 
BRANCH  65  66
ATOM     66  NZ  LYS B   1      12.948  96.314  59.947  1.00  0.00    -0.079 N 
ATOM     67  HZ3 LYS B   1      12.407  96.652  59.164  1.00  0.00     0.274 HD
ATOM     68  HZ2 LYS B   1      13.258  95.350  59.788  1.00  0.00     0.274 HD
ATOM     69  HZ1 LYS B   1      13.802  96.869  60.084  1.00  0.00     0.274 HD
ENDBRANCH  65  66
ENDBRANCH  64  65
ENDBRANCH  63  64
ENDBRANCH  62  63
ENDBRANCH  59  62
ENDBRANCH  57  59
ENDBRANCH  51  55
ENDBRANCH  49  51
ENDBRANCH  46  47
BRANCH  46  70
ATOM     70  CB  PHE B   3       6.167  89.021  64.532  1.00  0.00     0.073 C 
BRANCH  70  71
ATOM     71  CG  PHE B   3       5.969  90.539  64.669  1.00  0.00    -0.056 A 
ATOM     72  CD2 PHE B   3       6.297  91.199  65.856  1.00  0.00     0.007 A 
ATOM     73  CE2 PHE B   3       6.178  92.584  65.941  1.00  0.00     0.001 A 
ATOM     74  CZ  PHE B   3       5.737  93.315  64.839  1.00  0.00     0.000 A 
ATOM     75  CE1 PHE B   3       5.408  92.662  63.653  1.00  0.00     0.001 A 
ATOM     76  CD1 PHE B   3       5.515  91.279  63.571  1.00  0.00     0.007 A 
ENDBRANCH  70  71
ENDBRANCH  46  70
ENDBRANCH  43  46
ENDBRANCH   1  42
TORSDOF 30
ENDMDL
MODEL 7
REMARK VINA RESULT:      -6.2      3.422      7.999
REMARK  30 active torsions:
REMARK  status: ('A' for Active; 'I' for Inactive)
REMARK    1  A    between atoms: N_1  and  CA_2 
REMARK    2  A    between atoms: CA_2  and  CB_5 
REMARK    3  A    between atoms: CA_2  and  C_3 
REMARK       I    between atoms: C_3  and  N_14 
REMARK    4  A    between atoms: CB_5  and  CG_6 
REMARK    5  A    between atoms: CG_6  and  CD_7 
REMARK    6  A    between atoms: CD_7  and  CE_8 
REMARK    7  A    between atoms: CE_8  and  NZ_9 
REMARK    8  A    between atoms: N_14  and  CA_15 
REMARK    9  A    between atoms: CA_15  and  CB_18 
REMARK   10  A    between atoms: CA_15  and  C_16 
REMARK       I    between atoms: C_16  and  N_22 
REMARK   11  A    between atoms: CB_18  and  SG_19 
REMARK   12  A    between atoms: N_22  and  CA_23 
REMARK   13  A    between atoms: CA_23  and  CB_26 
REMARK   14  A    between atoms: CA_23  and  C_24 
REMARK       I    between atoms: C_24  and  N_34 
REMARK   15  A    between atoms: CB_26  and  CG_27 
REMARK   16  A    between atoms: N_34  and  CA_35 
REMARK   17  A    between atoms: CA_35  and  CB_38 
REMARK   18  A    between atoms: CA_35  and  C_36 
REMARK       I    between atoms: C_36  and  N_49 
REMARK   19  A    between atoms: CB_38  and  CG_39 
REMARK   20  A    between atoms: CA_43  and  N_49 
REMARK   21  A    between atoms: CA_43  and  CB_45 
REMARK   22  A    between atoms: CA_43  and  C_44 
REMARK       I    between atoms: C_44  and  N_65 
REMARK   23  A    between atoms: CB_45  and  OG1_51 
REMARK   24  A    between atoms: CA_52  and  CB_54 
REMARK   25  A    between atoms: CA_52  and  N_65 
REMARK   26  A    between atoms: CA_52  and  C_53 
REMARK       I    between atoms: C_53  and  N_74 
REMARK   27  A    between atoms: CB_54  and  CG_55 
REMARK   28  A    between atoms: CA_68  and  N_74 
REMARK   29  A    between atoms: CA_68  and  CB_70 
REMARK   30  A    between atoms: CA_68  and  C_69 
ROOT
ATOM      1  CA  ASP B   4       6.569  87.664  60.704  1.00  0.00     0.186 C 
ENDROOT
BRANCH   1   2
ATOM      2  CB  ASP B   4       6.932  86.201  60.324  1.00  0.00     0.147 C 
BRANCH   2   3
ATOM      3  CG  ASP B   4       7.124  85.936  58.824  1.00  0.00     0.175 C 
ATOM      4  OD2 ASP B   4       7.247  84.756  58.436  1.00  0.00    -0.648 OA
ATOM      5  OD1 ASP B   4       7.108  86.900  58.030  1.00  0.00    -0.648 OA
ENDBRANCH   2   3
ENDBRANCH   1   2
BRANCH   1   6
ATOM      6  C   ASP B   4       5.072  87.857  60.735  1.00  0.00     0.241 C 
ATOM      7  O   ASP B   4       4.507  88.534  59.871  1.00  0.00    -0.271 OA
ATOM      8  N   THR B   5       4.421  87.299  61.752  1.00  7.70    -0.344 N 
ATOM      9  H   THR B   5       4.930  86.783  62.413  1.00  0.23     0.163 HD
BRANCH   8  10
ATOM     10  CA  THR B   5       2.975  87.420  61.908  1.00  7.88     0.205 C 
BRANCH  10  11
ATOM     11  CB  THR B   5       2.344  86.040  62.098  1.00  4.05     0.146 C 
ATOM     12  CG2 THR B   5       3.363  84.935  62.267  1.00  3.72     0.042 C 
BRANCH  11  13
ATOM     13  OG1 THR B   5       1.504  86.026  63.239  1.00  7.31    -0.393 OA
ATOM     14  HG1 THR B   5       0.630  86.342  62.997  1.00  0.23     0.210 HD
ENDBRANCH  11  13
ENDBRANCH  10  11
BRANCH  10  15
ATOM     15  C   THR B   5       2.636  88.315  63.096  1.00  7.05     0.243 C 
ATOM     16  N   TRP B   6       3.534  88.362  64.073  1.00  0.00    -0.346 N 
ATOM     17  H   TRP B   6       4.356  87.834  63.993  1.00  0.23     0.163 HD
ATOM     18  O   THR B   5       1.580  88.948  63.126  1.00  6.06    -0.271 OA
BRANCH  16  19
ATOM     19  CA  TRP B   6       3.326  89.176  65.264  1.00  0.00     0.181 C 
BRANCH  19  20
ATOM     20  CB  TRP B   6       2.643  90.492  64.890  1.00  0.00     0.075 C 
BRANCH  20  21
ATOM     21  CG  TRP B   6       3.615  91.605  64.642  1.00  0.00    -0.028 A 
ATOM     22  CD2 TRP B   6       4.223  91.948  63.391  1.00  0.00    -0.002 A 
ATOM     23  CE2 TRP B   6       5.057  93.058  63.624  1.00  0.00     0.042 A 
ATOM     24  CE3 TRP B   6       4.145  91.423  62.098  1.00  0.00     0.014 A 
ATOM     25  CZ2 TRP B   6       5.805  93.652  62.610  1.00  0.00     0.030 A 
ATOM     26  NE1 TRP B   6       4.960  93.375  64.954  1.00  0.00    -0.365 N 
ATOM     27  CH2 TRP B   6       5.710  93.118  61.354  1.00  0.00     0.002 A 
ATOM     28  CZ3 TRP B   6       4.889  92.014  61.093  1.00  0.00     0.001 A 
ATOM     29  HE1 TRP B   6       5.432  94.108  65.401  1.00  0.23     0.165 HD
ATOM     30  CD1 TRP B   6       4.092  92.498  65.558  1.00  0.00     0.096 A 
ENDBRANCH  20  21
ENDBRANCH  19  20
BRANCH  19  31
ATOM     31  C   TRP B   6       2.493  88.426  66.299  1.00  0.00     0.241 C 
ATOM     32  N   VAL B   7       3.131  87.490  66.995  1.00  6.11    -0.344 N 
ATOM     33  H   VAL B   7       4.081  87.328  66.819  1.00  0.23     0.163 HD
ATOM     34  O   TRP B   6       1.301  88.688  66.459  1.00  0.00    -0.271 OA
BRANCH  32  35
ATOM     35  CA  VAL B   7       2.452  86.698  68.012  1.00  5.65     0.189 C 
BRANCH  35  36
ATOM     36  CB  VAL B   7       2.591  85.189  67.728  1.00  1.15     0.010 C 
ATOM     37  CG1 VAL B   7       1.812  84.379  68.754  1.00  4.96     0.012 C 
ATOM     38  CG2 VAL B   7       2.126  84.863  66.317  1.00  9.83     0.012 C 
ENDBRANCH  35  36
BRANCH  35  39
ATOM     39  C   VAL B   7       3.006  86.996  69.403  1.00  4.44     0.197 C 
ATOM     40  OXT VAL B   7       2.245  87.520  70.242  1.00  0.00    -0.646 OA
ATOM     41  O   VAL B   7       4.196  86.701  69.639  1.00  0.00    -0.646 OA
ENDBRANCH  35  39
ENDBRANCH  32  35
ENDBRANCH  19  31
ENDBRANCH  16  19
ENDBRANCH  10  15
ENDBRANCH   8  10
ENDBRANCH   1   6
BRANCH   1  42
ATOM     42  N   ASP B   4       7.170  88.025  61.985  1.00  0.00    -0.345 N 
ATOM     43  C   PHE B   3       7.594  89.254  62.248  1.00  0.00     0.241 C 
ATOM     44  O   PHE B   3       7.500  90.167  61.412  1.00  0.00    -0.271 OA
ATOM     45  H   ASP B   4       7.263  87.331  62.679  1.00  0.00     0.163 HD
BRANCH  43  46
ATOM     46  CA  PHE B   3       8.171  89.528  63.616  1.00  0.00     0.180 C 
BRANCH  46  47
ATOM     47  N   PHE B   3       9.478  90.171  63.513  1.00  0.00    -0.346 N 
ATOM     48  H   PHE B   3       9.668  90.747  62.747  1.00  0.00     0.163 HD
ATOM     49  C   CYS B   2      10.428  89.988  64.448  1.00  0.00     0.241 C 
ATOM     50  O   CYS B   2      10.251  89.282  65.437  1.00  0.00    -0.271 OA
BRANCH  49  51
ATOM     51  CA  CYS B   2      11.748  90.678  64.190  1.00  0.00     0.185 C 
BRANCH  51  52
ATOM     52  CB  CYS B   2      12.860  90.196  65.142  1.00  0.00     0.105 C 
BRANCH  52  53
ATOM     53  SG  CYS B   2      12.904  91.207  66.640  1.00  0.00    -0.180 SA
ATOM     54  HG  CYS B   2      14.135  91.684  66.473  1.00  0.00     0.101 HD
ENDBRANCH  52  53
ENDBRANCH  51  52
BRANCH  51  55
ATOM     55  N   CYS B   2      11.616  92.126  64.327  1.00  0.00    -0.345 N 
ATOM     56  H   CYS B   2      10.888  92.493  64.876  1.00  0.00     0.163 HD
ATOM     57  C   LYS B   1      12.463  92.965  63.723  1.00  0.00     0.254 C 
ATOM     58  O   LYS B   1      13.428  92.562  63.064  1.00  0.00    -0.271 OA
BRANCH  57  59
ATOM     59  CA  LYS B   1      12.205  94.439  63.930  1.00  0.00     0.350 C 
BRANCH  59  60
ATOM     60  N   LYS B   1      11.679  94.695  65.268  1.00  0.00     0.312 N 
ATOM     61  H   LYS B   1      12.215  94.107  65.980  1.00  0.00     0.359 HD
ENDBRANCH  59  60
BRANCH  59  62
ATOM     62  CB  LYS B   1      13.502  95.265  63.717  1.00  0.00     0.048 C 
BRANCH  62  63
ATOM     63  CG  LYS B   1      13.543  96.009  62.358  1.00  0.00     0.004 C 
BRANCH  63  64
ATOM     64  CD  LYS B   1      12.215  96.027  61.594  1.00  0.00     0.027 C 
BRANCH  64  65
ATOM     65  CE  LYS B   1      12.319  97.014  60.423  1.00  0.00     0.229 C 
BRANCH  65  66
ATOM     66  NZ  LYS B   1      10.970  97.306  59.908  1.00  0.00    -0.079 N 
ATOM     67  HZ3 LYS B   1      10.529  97.905  60.591  1.00  0.00     0.274 HD
ATOM     68  HZ2 LYS B   1      10.428  96.446  59.772  1.00  0.00     0.274 HD
ATOM     69  HZ1 LYS B   1      11.024  97.758  58.988  1.00  0.00     0.274 HD
ENDBRANCH  65  66
ENDBRANCH  64  65
ENDBRANCH  63  64
ENDBRANCH  62  63
ENDBRANCH  59  62
ENDBRANCH  57  59
ENDBRANCH  51  55
ENDBRANCH  49  51
ENDBRANCH  46  47
BRANCH  46  70
ATOM     70  CB  PHE B   3       7.185  90.443  64.403  1.00  0.00     0.073 C 
BRANCH  70  71
ATOM     71  CG  PHE B   3       7.027  90.148  65.904  1.00  0.00    -0.056 A 
ATOM     72  CD2 PHE B   3       6.661  88.875  66.347  1.00  0.00     0.007 A 
ATOM     73  CE2 PHE B   3       6.590  88.603  67.711  1.00  0.00     0.001 A 
ATOM     74  CZ  PHE B   3       6.889  89.602  68.637  1.00  0.00     0.000 A 
ATOM     75  CE1 PHE B   3       7.254  90.874  68.201  1.00  0.00     0.001 A 
ATOM     76  CD1 PHE B   3       7.314  91.148  66.839  1.00  0.00     0.007 A 
ENDBRANCH  70  71
ENDBRANCH  46  70
ENDBRANCH  43  46
ENDBRANCH   1  42
TORSDOF 30
ENDMDL
MODEL 8
REMARK VINA RESULT:      -5.7      3.922      8.039
REMARK  30 active torsions:
REMARK  status: ('A' for Active; 'I' for Inactive)
REMARK    1  A    between atoms: N_1  and  CA_2 
REMARK    2  A    between atoms: CA_2  and  CB_5 
REMARK    3  A    between atoms: CA_2  and  C_3 
REMARK       I    between atoms: C_3  and  N_14 
REMARK    4  A    between atoms: CB_5  and  CG_6 
REMARK    5  A    between atoms: CG_6  and  CD_7 
REMARK    6  A    between atoms: CD_7  and  CE_8 
REMARK    7  A    between atoms: CE_8  and  NZ_9 
REMARK    8  A    between atoms: N_14  and  CA_15 
REMARK    9  A    between atoms: CA_15  and  CB_18 
REMARK   10  A    between atoms: CA_15  and  C_16 
REMARK       I    between atoms: C_16  and  N_22 
REMARK   11  A    between atoms: CB_18  and  SG_19 
REMARK   12  A    between atoms: N_22  and  CA_23 
REMARK   13  A    between atoms: CA_23  and  CB_26 
REMARK   14  A    between atoms: CA_23  and  C_24 
REMARK       I    between atoms: C_24  and  N_34 
REMARK   15  A    between atoms: CB_26  and  CG_27 
REMARK   16  A    between atoms: N_34  and  CA_35 
REMARK   17  A    between atoms: CA_35  and  CB_38 
REMARK   18  A    between atoms: CA_35  and  C_36 
REMARK       I    between atoms: C_36  and  N_49 
REMARK   19  A    between atoms: CB_38  and  CG_39 
REMARK   20  A    between atoms: CA_43  and  N_49 
REMARK   21  A    between atoms: CA_43  and  CB_45 
REMARK   22  A    between atoms: CA_43  and  C_44 
REMARK       I    between atoms: C_44  and  N_65 
REMARK   23  A    between atoms: CB_45  and  OG1_51 
REMARK   24  A    between atoms: CA_52  and  CB_54 
REMARK   25  A    between atoms: CA_52  and  N_65 
REMARK   26  A    between atoms: CA_52  and  C_53 
REMARK       I    between atoms: C_53  and  N_74 
REMARK   27  A    between atoms: CB_54  and  CG_55 
REMARK   28  A    between atoms: CA_68  and  N_74 
REMARK   29  A    between atoms: CA_68  and  CB_70 
REMARK   30  A    between atoms: CA_68  and  C_69 
ROOT
ATOM      1  CA  ASP B   4       6.095  88.067  61.833  1.00  0.00     0.186 C 
ENDROOT
BRANCH   1   2
ATOM      2  CB  ASP B   4       6.431  86.811  60.981  1.00  0.00     0.147 C 
BRANCH   2   3
ATOM      3  CG  ASP B   4       7.086  87.090  59.621  1.00  0.00     0.175 C 
ATOM      4  OD2 ASP B   4       6.590  86.570  58.600  1.00  0.00    -0.648 OA
ATOM      5  OD1 ASP B   4       8.065  87.863  59.565  1.00  0.00    -0.648 OA
ENDBRANCH   2   3
ENDBRANCH   1   2
BRANCH   1   6
ATOM      6  C   ASP B   4       4.624  88.115  62.166  1.00  0.00     0.241 C 
ATOM      7  O   ASP B   4       3.775  87.866  61.306  1.00  0.00    -0.271 OA
ATOM      8  N   THR B   5       4.307  88.475  63.407  1.00  7.70    -0.344 N 
ATOM      9  H   THR B   5       5.029  88.673  64.041  1.00  0.23     0.163 HD
BRANCH   8  10
ATOM     10  CA  THR B   5       2.922  88.575  63.856  1.00  7.88     0.205 C 
BRANCH  10  11
ATOM     11  CB  THR B   5       2.528  87.324  64.644  1.00  4.05     0.146 C 
ATOM     12  CG2 THR B   5       2.955  87.373  66.095  1.00  3.72     0.042 C 
BRANCH  11  13
ATOM     13  OG1 THR B   5       1.124  87.136  64.616  1.00  7.31    -0.393 OA
ATOM     14  HG1 THR B   5       0.920  86.322  64.152  1.00  0.23     0.210 HD
ENDBRANCH  11  13
ENDBRANCH  10  11
BRANCH  10  15
ATOM     15  C   THR B   5       2.724  89.817  64.719  1.00  7.05     0.243 C 
ATOM     16  N   TRP B   6       3.811  90.302  65.309  1.00  0.00    -0.346 N 
ATOM     17  H   TRP B   6       4.672  89.855  65.169  1.00  0.23     0.163 HD
ATOM     18  O   THR B   5       1.610  90.323  64.849  1.00  6.06    -0.271 OA
BRANCH  16  19
ATOM     19  CA  TRP B   6       3.754  91.482  66.163  1.00  0.00     0.181 C 
BRANCH  19  20
ATOM     20  CB  TRP B   6       3.856  92.751  65.316  1.00  0.00     0.075 C 
BRANCH  20  21
ATOM     21  CG  TRP B   6       5.001  92.720  64.350  1.00  0.00    -0.028 A 
ATOM     22  CD2 TRP B   6       6.381  92.964  64.650  1.00  0.00    -0.002 A 
ATOM     23  CE2 TRP B   6       7.099  92.821  63.448  1.00  0.00     0.042 A 
ATOM     24  CE3 TRP B   6       7.076  93.291  65.817  1.00  0.00     0.014 A 
ATOM     25  CZ2 TRP B   6       8.479  92.993  63.382  1.00  0.00     0.030 A 
ATOM     26  NE1 TRP B   6       6.198  92.504  62.464  1.00  0.00    -0.365 N 
ATOM     27  CH2 TRP B   6       9.136  93.313  64.539  1.00  0.00     0.002 A 
ATOM     28  CZ3 TRP B   6       8.448  93.461  65.749  1.00  0.00     0.001 A 
ATOM     29  HE1 TRP B   6       6.416  92.346  61.521  1.00  0.23     0.165 HD
ATOM     30  CD1 TRP B   6       4.941  92.446  63.015  1.00  0.00     0.096 A 
ENDBRANCH  20  21
ENDBRANCH  19  20
BRANCH  19  31
ATOM     31  C   TRP B   6       2.469  91.499  66.984  1.00  0.00     0.241 C 
ATOM     32  N   VAL B   7       2.382  90.592  67.952  1.00  6.11    -0.344 N 
ATOM     33  H   VAL B   7       3.126  89.971  68.092  1.00  0.23     0.163 HD
ATOM     34  O   TRP B   6       1.577  92.313  66.743  1.00  0.00    -0.271 OA
BRANCH  32  35
ATOM     35  CA  VAL B   7       1.207  90.498  68.809  1.00  5.65     0.189 C 
BRANCH  35  36
ATOM     36  CB  VAL B   7       1.032  89.068  69.358  1.00  1.15     0.010 C 
ATOM     37  CG1 VAL B   7       0.100  88.263  68.463  1.00  4.96     0.012 C 
ATOM     38  CG2 VAL B   7       2.379  88.376  69.496  1.00  9.83     0.012 C 
ENDBRANCH  35  36
BRANCH  35  39
ATOM     39  C   VAL B   7       1.298  91.473  69.979  1.00  4.44     0.197 C 
ATOM     40  OXT VAL B   7       0.514  92.443  70.003  1.00  0.00    -0.646 OA
ATOM     41  O   VAL B   7       2.154  91.256  70.862  1.00  0.00    -0.646 OA
ENDBRANCH  35  39
ENDBRANCH  32  35
ENDBRANCH  19  31
ENDBRANCH  16  19
ENDBRANCH  10  15
ENDBRANCH   8  10
ENDBRANCH   1   6
BRANCH   1  42
ATOM     42  N   ASP B   4       6.909  88.097  63.046  1.00  0.00    -0.345 N 
ATOM     43  C   PHE B   3       7.892  88.969  63.220  1.00  0.00     0.241 C 
ATOM     44  O   PHE B   3       8.173  89.813  62.353  1.00  0.00    -0.271 OA
ATOM     45  H   ASP B   4       6.718  87.445  63.761  1.00  0.00     0.163 HD
BRANCH  43  46
ATOM     46  CA  PHE B   3       8.650  88.933  64.525  1.00  0.00     0.180 C 
BRANCH  46  47
ATOM     47  N   PHE B   3      10.021  89.401  64.346  1.00  0.00    -0.346 N 
ATOM     48  H   PHE B   3      10.475  89.236  63.496  1.00  0.00     0.163 HD
ATOM     49  C   CYS B   2      10.676  90.054  65.324  1.00  0.00     0.241 C 
ATOM     50  O   CYS B   2      10.161  90.297  66.412  1.00  0.00    -0.271 OA
BRANCH  49  51
ATOM     51  CA  CYS B   2      12.105  90.439  65.018  1.00  0.00     0.185 C 
BRANCH  51  52
ATOM     52  CB  CYS B   2      13.055  90.164  66.199  1.00  0.00     0.105 C 
BRANCH  52  53
ATOM     53  SG  CYS B   2      13.538  91.708  67.005  1.00  0.00    -0.180 SA
ATOM     54  HG  CYS B   2      12.389  92.352  66.816  1.00  0.00     0.101 HD
ENDBRANCH  52  53
ENDBRANCH  51  52
BRANCH  51  55
ATOM     55  N   CYS B   2      12.200  91.853  64.665  1.00  0.00    -0.345 N 
ATOM     56  H   CYS B   2      11.758  92.521  65.234  1.00  0.00     0.163 HD
ATOM     57  C   LYS B   1      12.875  92.260  63.586  1.00  0.00     0.254 C 
ATOM     58  O   LYS B   1      13.494  91.472  62.863  1.00  0.00    -0.271 OA
BRANCH  57  59
ATOM     59  CA  LYS B   1      12.880  93.748  63.323  1.00  0.00     0.350 C 
BRANCH  59  60
ATOM     60  N   LYS B   1      12.704  94.498  64.563  1.00  0.00     0.312 N 
ATOM     61  H   LYS B   1      13.638  94.569  65.075  1.00  0.00     0.359 HD
ENDBRANCH  59  60
BRANCH  59  62
ATOM     62  CB  LYS B   1      14.203  94.186  62.638  1.00  0.00     0.048 C 
BRANCH  62  63
ATOM     63  CG  LYS B   1      15.399  94.290  63.617  1.00  0.00     0.004 C 
BRANCH  63  64
ATOM     64  CD  LYS B   1      16.111  95.646  63.622  1.00  0.00     0.027 C 
BRANCH  64  65
ATOM     65  CE  LYS B   1      15.115  96.739  64.036  1.00  0.00     0.229 C 
BRANCH  65  66
ATOM     66  NZ  LYS B   1      15.820  97.776  64.809  1.00  0.00    -0.079 N 
ATOM     67  HZ3 LYS B   1      15.752  97.503  65.779  1.00  0.00     0.274 HD
ATOM     68  HZ2 LYS B   1      15.403  98.701  64.660  1.00  0.00     0.274 HD
ATOM     69  HZ1 LYS B   1      16.798  97.852  64.506  1.00  0.00     0.274 HD
ENDBRANCH  65  66
ENDBRANCH  64  65
ENDBRANCH  63  64
ENDBRANCH  62  63
ENDBRANCH  59  62
ENDBRANCH  57  59
ENDBRANCH  51  55
ENDBRANCH  49  51
ENDBRANCH  46  47
BRANCH  46  70
ATOM     70  CB  PHE B   3       7.909  89.832  65.561  1.00  0.00     0.073 C 
BRANCH  70  71
ATOM     71  CG  PHE B   3       7.229  89.107  66.734  1.00  0.00    -0.056 A 
ATOM     72  CD2 PHE B   3       7.453  87.747  66.961  1.00  0.00     0.007 A 
ATOM     73  CE2 PHE B   3       6.886  87.120  68.068  1.00  0.00     0.001 A 
ATOM     74  CZ  PHE B   3       6.097  87.852  68.954  1.00  0.00     0.000 A 
ATOM     75  CE1 PHE B   3       5.869  89.208  68.732  1.00  0.00     0.001 A 
ATOM     76  CD1 PHE B   3       6.426  89.832  67.622  1.00  0.00     0.007 A 
ENDBRANCH  70  71
ENDBRANCH  46  70
ENDBRANCH  43  46
ENDBRANCH   1  42
TORSDOF 30
ENDMDL
