REMARK  30 active torsions:
REMARK  status: ('A' for Active; 'I' for Inactive)
REMARK    1  A    between atoms: N_1  and  CA_2 
REMARK    2  A    between atoms: CA_2  and  CB_5 
REMARK    3  A    between atoms: CA_2  and  C_3 
REMARK       I    between atoms: C_3  and  N_14 
REMARK    4  A    between atoms: CB_5  and  CG_6 
REMARK    5  A    between atoms: CG_6  and  CD_7 
REMARK    6  A    between atoms: CD_7  and  CE_8 
REMARK    7  A    between atoms: CE_8  and  NZ_9 
REMARK    8  A    between atoms: N_14  and  CA_15 
REMARK    9  A    between atoms: CA_15  and  CB_18 
REMARK   10  A    between atoms: CA_15  and  C_16 
REMARK       I    between atoms: C_16  and  N_22 
REMARK   11  A    between atoms: CB_18  and  SG_19 
REMARK   12  A    between atoms: N_22  and  CA_23 
REMARK   13  A    between atoms: CA_23  and  CB_26 
REMARK   14  A    between atoms: CA_23  and  C_24 
REMARK       I    between atoms: C_24  and  N_34 
REMARK   15  A    between atoms: CB_26  and  CG_27 
REMARK   16  A    between atoms: N_34  and  CA_35 
REMARK   17  A    between atoms: CA_35  and  CB_38 
REMARK   18  A    between atoms: CA_35  and  C_36 
REMARK       I    between atoms: C_36  and  N_48 
REMARK   19  A    between atoms: CB_38  and  OG_39 
REMARK   20  A    between atoms: CA_42  and  N_48 
REMARK   21  A    between atoms: CA_42  and  CB_44 
REMARK   22  A    between atoms: CA_42  and  C_43 
REMARK       I    between atoms: C_43  and  N_64 
REMARK   23  A    between atoms: CB_44  and  OG1_50 
REMARK   24  A    between atoms: CA_51  and  CB_53 
REMARK   25  A    between atoms: CA_51  and  N_64 
REMARK   26  A    between atoms: CA_51  and  C_52 
REMARK       I    between atoms: C_52  and  N_73 
REMARK   27  A    between atoms: CB_53  and  CG_54 
REMARK   28  A    between atoms: CA_67  and  N_73 
REMARK   29  A    between atoms: CA_67  and  CB_69 
REMARK   30  A    between atoms: CA_67  and  C_68 
ROOT
ATOM      1  CA  SER B   4       2.931  -2.071  -1.414  1.00  0.00     0.200 C 
ENDROOT
BRANCH   1   2
ATOM      2  CB  SER B   4       1.603  -1.620  -2.072  1.00  0.00     0.199 C 
BRANCH   2   3
ATOM      3  OG  SER B   4       1.740  -0.417  -2.835  1.00  0.00    -0.398 OA
ATOM      4  HG  SER B   4       1.992   0.282  -2.227  1.00  0.00     0.209 HD
ENDBRANCH   2   3
ENDBRANCH   1   2
BRANCH   1   5
ATOM      5  C   SER B   4       3.555  -0.959  -0.603  1.00  0.00     0.243 C 
ATOM      6  O   SER B   4       3.056  -0.622   0.476  1.00  0.00    -0.271 OA
ATOM      7  N   THR B   5       4.607  -0.349  -1.134  1.00  7.70    -0.344 N 
ATOM      8  H   THR B   5       4.944  -0.656  -2.002  1.00  0.23     0.163 HD
BRANCH   7   9
ATOM      9  CA  THR B   5       5.286   0.753  -0.459  1.00  7.88     0.205 C 
BRANCH   9  10
ATOM     10  CB  THR B   5       6.709   0.344  -0.075  1.00  4.05     0.146 C 
ATOM     11  CG2 THR B   5       7.356   1.289   0.914  1.00  3.72     0.042 C 
BRANCH  10  12
ATOM     12  OG1 THR B   5       6.720  -0.951   0.499  1.00  7.31    -0.393 OA
ATOM     13  HG1 THR B   5       6.777  -1.609  -0.197  1.00  0.23     0.210 HD
ENDBRANCH  10  12
ENDBRANCH   9  10
BRANCH   9  14
ATOM     14  C   THR B   5       5.323   1.989  -1.352  1.00  7.05     0.243 C 
ATOM     15  N   TRP B   6       4.731   3.078  -0.874  1.00  0.00    -0.346 N 
ATOM     16  H   TRP B   6       4.307   3.044   0.009  1.00  0.23     0.163 HD
ATOM     17  O   THR B   5       5.874   1.955  -2.452  1.00  6.06    -0.271 OA
BRANCH  15  18
ATOM     18  CA  TRP B   6       4.694   4.322  -1.632  1.00  0.00     0.181 C 
BRANCH  18  19
ATOM     19  CB  TRP B   6       3.466   5.144  -1.238  1.00  0.00     0.075 C 
BRANCH  19  20
ATOM     20  CG  TRP B   6       2.176   4.494  -1.635  1.00  0.00    -0.028 A 
ATOM     21  CD2 TRP B   6       1.490   4.644  -2.884  1.00  0.00    -0.002 A 
ATOM     22  CE2 TRP B   6       0.330   3.849  -2.820  1.00  0.00     0.042 A 
ATOM     23  CE3 TRP B   6       1.744   5.374  -4.048  1.00  0.00     0.014 A 
ATOM     24  CZ2 TRP B   6      -0.572   3.764  -3.877  1.00  0.00     0.030 A 
ATOM     25  NE1 TRP B   6       0.312   3.244  -1.590  1.00  0.00    -0.365 N 
ATOM     26  CH2 TRP B   6      -0.300   4.489  -5.005  1.00  0.00     0.002 A 
ATOM     27  CZ3 TRP B   6       0.846   5.288  -5.097  1.00  0.00     0.001 A 
ATOM     28  HE1 TRP B   6      -0.381   2.631  -1.266  1.00  0.23     0.165 HD
ATOM     29  CD1 TRP B   6       1.424   3.637  -0.885  1.00  0.00     0.096 A 
ENDBRANCH  19  20
ENDBRANCH  18  19
BRANCH  18  30
ATOM     30  C   TRP B   6       5.965   5.135  -1.408  1.00  0.00     0.241 C 
ATOM     31  N   VAL B   7       6.752   5.293  -2.468  1.00  6.11    -0.344 N 
ATOM     32  H   VAL B   7       6.488   4.893  -3.322  1.00  0.23     0.163 HD
ATOM     33  O   TRP B   6       6.227   5.604  -0.300  1.00  0.00    -0.271 OA
BRANCH  31  34
ATOM     34  CA  VAL B   7       7.998   6.045  -2.391  1.00  5.65     0.189 C 
BRANCH  34  35
ATOM     35  CB  VAL B   7       9.053   5.476  -3.360  1.00  1.15     0.010 C 
ATOM     36  CG1 VAL B   7       9.474   4.078  -2.930  1.00  4.96     0.012 C 
ATOM     37  CG2 VAL B   7       8.523   5.465  -4.786  1.00  9.83     0.012 C 
ENDBRANCH  34  35
BRANCH  34  38
ATOM     38  C   VAL B   7       7.772   7.520  -2.710  1.00  4.44     0.197 C 
ATOM     39  OXT VAL B   7       6.958   7.813  -3.609  1.00  0.00    -0.646 OA
ATOM     40  O   VAL B   7       8.412   8.369  -2.055  1.00  0.00    -0.646 OA
ENDBRANCH  34  38
ENDBRANCH  31  34
ENDBRANCH  18  30
ENDBRANCH  15  18
ENDBRANCH   9  14
ENDBRANCH   7   9
ENDBRANCH   1   5
BRANCH   1  41
ATOM     41  N   SER B   4       2.728  -3.263  -0.596  1.00  0.00    -0.344 N 
ATOM     42  C   PHE B   3       3.729  -4.019  -0.170  1.00  0.00     0.241 C 
ATOM     43  O   PHE B   3       4.909  -3.750  -0.448  1.00  0.00    -0.271 OA
ATOM     44  H   SER B   4       1.805  -3.518  -0.351  1.00  0.00     0.163 HD
BRANCH  42  45
ATOM     45  CA  PHE B   3       3.402  -5.210   0.699  1.00  0.00     0.180 C 
BRANCH  45  46
ATOM     46  N   PHE B   3       2.350  -4.885   1.657  1.00  0.00    -0.346 N 
ATOM     47  H   PHE B   3       1.876  -4.034   1.576  1.00  0.00     0.163 HD
ATOM     48  C   CYS B   2       2.016  -5.730   2.650  1.00  0.00     0.241 C 
ATOM     49  O   CYS B   2       2.568  -6.816   2.803  1.00  0.00    -0.271 OA
BRANCH  48  50
ATOM     50  CA  CYS B   2       0.941  -5.245   3.595  1.00  0.00     0.185 C 
BRANCH  50  51
ATOM     51  CB  CYS B   2       1.503  -4.856   4.976  1.00  0.00     0.105 C 
BRANCH  51  52
ATOM     52  SG  CYS B   2       2.757  -3.564   4.816  1.00  0.00    -0.180 SA
ATOM     53  HG  CYS B   2       3.815  -4.342   5.031  1.00  0.00     0.101 HD
ENDBRANCH  51  52
ENDBRANCH  50  51
BRANCH  50  54
ATOM     54  N   CYS B   2      -0.088  -6.264   3.783  1.00  0.00    -0.345 N 
ATOM     55  H   CYS B   2      -0.933  -6.191   3.286  1.00  0.00     0.163 HD
ATOM     56  C   LYS B   1       0.092  -7.294   4.615  1.00  0.00     0.254 C 
ATOM     57  O   LYS B   1       1.152  -7.467   5.226  1.00  0.00    -0.271 OA
BRANCH  56  58
ATOM     58  CA  LYS B   1      -1.058  -8.267   4.732  1.00  0.00     0.350 C 
BRANCH  58  59
ATOM     59  N   LYS B   1      -2.222  -7.630   5.341  1.00  0.00     0.312 N 
ATOM     60  H   LYS B   1      -1.997  -6.610   5.561  1.00  0.00     0.359 HD
ENDBRANCH  58  59
BRANCH  58  61
ATOM     61  CB  LYS B   1      -1.448  -8.835   3.340  1.00  0.00     0.048 C 
BRANCH  61  62
ATOM     62  CG  LYS B   1      -2.450 -10.014   3.415  1.00  0.00     0.004 C 
BRANCH  62  63
ATOM     63  CD  LYS B   1      -2.847 -10.609   2.061  1.00  0.00     0.027 C 
BRANCH  63  64
ATOM     64  CE  LYS B   1      -3.849 -11.750   2.284  1.00  0.00     0.229 C 
BRANCH  64  65
ATOM     65  NZ  LYS B   1      -4.242 -12.318   0.983  1.00  0.00    -0.079 N 
ATOM     66  HZ3 LYS B   1      -4.990 -11.736   0.633  1.00  0.00     0.274 HD
ATOM     67  HZ2 LYS B   1      -4.551 -13.291   1.078  1.00  0.00     0.274 HD
ATOM     68  HZ1 LYS B   1      -3.443 -12.334   0.338  1.00  0.00     0.274 HD
ENDBRANCH  64  65
ENDBRANCH  63  64
ENDBRANCH  62  63
ENDBRANCH  61  62
ENDBRANCH  58  61
ENDBRANCH  56  58
ENDBRANCH  50  54
ENDBRANCH  48  50
ENDBRANCH  45  46
BRANCH  45  69
ATOM     69  CB  PHE B   3       2.949  -6.389  -0.214  1.00  0.00     0.073 C 
BRANCH  69  70
ATOM     70  CG  PHE B   3       3.966  -6.876  -1.259  1.00  0.00    -0.056 A 
ATOM     71  CD2 PHE B   3       3.883  -6.455  -2.588  1.00  0.00     0.007 A 
ATOM     72  CE2 PHE B   3       4.852  -6.848  -3.508  1.00  0.00     0.001 A 
ATOM     73  CZ  PHE B   3       5.910  -7.659  -3.101  1.00  0.00     0.000 A 
ATOM     74  CE1 PHE B   3       5.998  -8.083  -1.777  1.00  0.00     0.001 A 
ATOM     75  CD1 PHE B   3       5.025  -7.700  -0.861  1.00  0.00     0.007 A 
ENDBRANCH  69  70
ENDBRANCH  45  69
ENDBRANCH  42  45
ENDBRANCH   1  41
TORSDOF 30
