MODEL 1
REMARK VINA RESULT:      -6.9      0.000      0.000
REMARK  30 active torsions:
REMARK  status: ('A' for Active; 'I' for Inactive)
REMARK    1  A    between atoms: N_1  and  CA_2 
REMARK    2  A    between atoms: CA_2  and  CB_5 
REMARK    3  A    between atoms: CA_2  and  C_3 
REMARK       I    between atoms: C_3  and  N_14 
REMARK    4  A    between atoms: CB_5  and  CG_6 
REMARK    5  A    between atoms: CG_6  and  CD_7 
REMARK    6  A    between atoms: CD_7  and  CE_8 
REMARK    7  A    between atoms: CE_8  and  NZ_9 
REMARK    8  A    between atoms: N_14  and  CA_15 
REMARK    9  A    between atoms: CA_15  and  C_16 
REMARK   10  A    between atoms: CA_15  and  CB_18 
REMARK       I    between atoms: C_16  and  N_22 
REMARK   11  A    between atoms: CB_18  and  SG_19 
REMARK   12  A    between atoms: N_22  and  CA_23 
REMARK   13  A    between atoms: CA_23  and  CB_26 
REMARK   14  A    between atoms: CA_23  and  C_24 
REMARK       I    between atoms: C_24  and  N_34 
REMARK   15  A    between atoms: CB_26  and  CG_27 
REMARK   16  A    between atoms: N_34  and  CA_35 
REMARK   17  A    between atoms: CA_35  and  CB_38 
REMARK   18  A    between atoms: CA_35  and  C_36 
REMARK       I    between atoms: C_36  and  N_51 
REMARK   19  A    between atoms: CB_38  and  CG_39 
REMARK       I    between atoms: CG_39  and  ND2_40 
REMARK   20  A    between atoms: CA_45  and  N_51 
REMARK   21  A    between atoms: CA_45  and  CB_47 
REMARK   22  A    between atoms: CA_45  and  C_46 
REMARK       I    between atoms: C_46  and  N_67 
REMARK   23  A    between atoms: CB_47  and  OG1_53 
REMARK   24  A    between atoms: CA_54  and  CB_56 
REMARK   25  A    between atoms: CA_54  and  N_67 
REMARK   26  A    between atoms: CA_54  and  C_55 
REMARK       I    between atoms: C_55  and  N_76 
REMARK   27  A    between atoms: CB_56  and  CG_57 
REMARK   28  A    between atoms: CA_70  and  N_76 
REMARK   29  A    between atoms: CA_70  and  CB_72 
REMARK   30  A    between atoms: CA_70  and  C_71 
ROOT
ATOM      1  CA  ASN B   4       5.313  91.121  65.669  1.00  0.00     0.185 C 
ENDROOT
BRANCH   1   2
ATOM      2  N   ASN B   4       6.479  90.710  64.894  1.00  0.00    -0.346 N 
ATOM      3  H   ASN B   4       7.368  91.038  65.153  1.00  0.00     0.163 HD
ATOM      4  C   PHE B   3       6.370  89.897  63.840  1.00  0.00     0.241 C 
ATOM      5  O   PHE B   3       5.270  89.457  63.469  1.00  0.00    -0.271 OA
BRANCH   4   6
ATOM      6  CA  PHE B   3       7.628  89.547  63.080  1.00  0.00     0.180 C 
BRANCH   6   7
ATOM      7  CB  PHE B   3       7.499  88.091  62.539  1.00  0.00     0.073 C 
BRANCH   7   8
ATOM      8  CG  PHE B   3       7.192  87.943  61.040  1.00  0.00    -0.056 A 
ATOM      9  CD1 PHE B   3       6.869  86.683  60.522  1.00  0.00     0.007 A 
ATOM     10  CE1 PHE B   3       6.668  86.517  59.157  1.00  0.00     0.001 A 
ATOM     11  CZ  PHE B   3       6.773  87.611  58.301  1.00  0.00     0.000 A 
ATOM     12  CE2 PHE B   3       7.083  88.871  58.810  1.00  0.00     0.001 A 
ATOM     13  CD2 PHE B   3       7.295  89.036  60.177  1.00  0.00     0.007 A 
ENDBRANCH   7   8
ENDBRANCH   6   7
BRANCH   6  14
ATOM     14  N   PHE B   3       8.804  89.661  63.936  1.00  0.00    -0.346 N 
ATOM     15  C   CYS B   2       9.515  90.802  64.007  1.00  0.00     0.241 C 
ATOM     16  O   CYS B   2       9.221  91.802  63.359  1.00  0.00    -0.271 OA
ATOM     17  H   PHE B   3       9.084  88.892  64.470  1.00  0.00     0.163 HD
BRANCH  15  18
ATOM     18  CA  CYS B   2      10.682  90.793  64.968  1.00  0.00     0.185 C 
BRANCH  18  19
ATOM     19  N   CYS B   2      11.726  91.716  64.531  1.00  0.00    -0.345 N 
ATOM     20  H   CYS B   2      11.535  92.680  64.507  1.00  0.00     0.163 HD
ATOM     21  C   LYS B   1      12.935  91.282  64.164  1.00  0.00     0.254 C 
ATOM     22  O   LYS B   1      13.249  90.089  64.223  1.00  0.00    -0.271 OA
BRANCH  21  23
ATOM     23  CA  LYS B   1      13.916  92.339  63.715  1.00  0.00     0.350 C 
BRANCH  23  24
ATOM     24  N   LYS B   1      14.558  91.958  62.460  1.00  0.00     0.312 N 
ATOM     25  H   LYS B   1      14.753  90.909  62.462  1.00  0.00     0.359 HD
ENDBRANCH  23  24
BRANCH  23  26
ATOM     26  CB  LYS B   1      13.212  93.712  63.541  1.00  0.00     0.048 C 
BRANCH  26  27
ATOM     27  CG  LYS B   1      14.026  94.718  62.690  1.00  0.00     0.004 C 
BRANCH  27  28
ATOM     28  CD  LYS B   1      13.394  96.106  62.552  1.00  0.00     0.027 C 
BRANCH  28  29
ATOM     29  CE  LYS B   1      12.667  96.200  61.204  1.00  0.00     0.229 C 
BRANCH  29  30
ATOM     30  NZ  LYS B   1      11.213  96.102  61.424  1.00  0.00    -0.079 N 
ATOM     31  HZ3 LYS B   1      10.775  96.486  60.598  1.00  0.00     0.274 HD
ATOM     32  HZ2 LYS B   1      10.927  96.618  62.262  1.00  0.00     0.274 HD
ATOM     33  HZ1 LYS B   1      10.935  95.126  61.580  1.00  0.00     0.274 HD
ENDBRANCH  29  30
ENDBRANCH  28  29
ENDBRANCH  27  28
ENDBRANCH  26  27
ENDBRANCH  23  26
ENDBRANCH  21  23
ENDBRANCH  18  19
BRANCH  18  34
ATOM     34  CB  CYS B   2      10.266  91.168  66.403  1.00  0.00     0.105 C 
BRANCH  34  35
ATOM     35  SG  CYS B   2      10.060  89.686  67.418  1.00  0.00    -0.180 SA
ATOM     36  HG  CYS B   2      11.321  89.604  67.837  1.00  0.00     0.101 HD
ENDBRANCH  34  35
ENDBRANCH  18  34
ENDBRANCH  15  18
ENDBRANCH   6  14
ENDBRANCH   4   6
ENDBRANCH   1   2
BRANCH   1  37
ATOM     37  CB  ASN B   4       4.524  92.207  64.882  1.00  0.00     0.137 C 
BRANCH  37  38
ATOM     38  CG  ASN B   4       5.349  93.278  64.162  1.00  0.00     0.217 C 
ATOM     39  ND2 ASN B   4       4.762  94.035  63.274  1.00  0.00    -0.370 N 
ATOM     40 1HD2 ASN B   4       5.355  94.810  62.967  1.00  0.00     0.159 HD
ATOM     41 2HD2 ASN B   4       3.756  93.916  63.159  1.00  0.00     0.159 HD
ATOM     42  OD1 ASN B   4       6.532  93.463  64.406  1.00  0.00    -0.274 OA
ENDBRANCH  37  38
ENDBRANCH   1  37
BRANCH   1  43
ATOM     43  C   ASN B   4       4.428  89.938  65.981  1.00  0.00     0.241 C 
ATOM     44  O   ASN B   4       4.838  89.002  66.670  1.00  0.00    -0.271 OA
ATOM     45  N   THR B   5       3.211  89.960  65.443  1.00  7.70    -0.344 N 
ATOM     46  H   THR B   5       2.949  90.730  64.895  1.00  0.23     0.163 HD
BRANCH  45  47
ATOM     47  CA  THR B   5       2.252  88.880  65.653  1.00  7.88     0.205 C 
BRANCH  47  48
ATOM     48  CB  THR B   5       0.998  89.411  66.350  1.00  4.05     0.146 C 
ATOM     49  CG2 THR B   5       1.178  89.604  67.840  1.00  3.72     0.042 C 
BRANCH  48  50
ATOM     50  OG1 THR B   5       0.609  90.657  65.800  1.00  7.31    -0.393 OA
ATOM     51  HG1 THR B   5      -0.114  91.022  66.314  1.00  0.23     0.210 HD
ENDBRANCH  48  50
ENDBRANCH  47  48
BRANCH  47  52
ATOM     52  C   THR B   5       1.874  88.232  64.325  1.00  7.05     0.243 C 
ATOM     53  N   TRP B   6       2.416  87.045  64.075  1.00  0.00    -0.346 N 
ATOM     54  H   TRP B   6       3.019  86.645  64.736  1.00  0.23     0.163 HD
ATOM     55  O   THR B   5       1.110  88.797  63.543  1.00  6.06    -0.271 OA
BRANCH  53  56
ATOM     56  CA  TRP B   6       2.138  86.324  62.839  1.00  0.00     0.181 C 
BRANCH  56  57
ATOM     57  CB  TRP B   6       3.401  86.241  61.980  1.00  0.00     0.075 C 
BRANCH  57  58
ATOM     58  CG  TRP B   6       3.228  86.859  60.627  1.00  0.00    -0.028 A 
ATOM     59  CD2 TRP B   6       3.419  88.237  60.284  1.00  0.00    -0.002 A 
ATOM     60  CE2 TRP B   6       3.155  88.364  58.907  1.00  0.00     0.042 A 
ATOM     61  CE3 TRP B   6       3.787  89.374  61.007  1.00  0.00     0.014 A 
ATOM     62  CZ2 TRP B   6       3.248  89.583  58.241  1.00  0.00     0.030 A 
ATOM     63  NE1 TRP B   6       2.818  87.122  58.435  1.00  0.00    -0.365 N 
ATOM     64  CH2 TRP B   6       3.610  90.681  58.973  1.00  0.00     0.002 A 
ATOM     65  CZ3 TRP B   6       3.879  90.585  60.344  1.00  0.00     0.001 A 
ATOM     66  HE1 TRP B   6       2.583  86.908  57.508  1.00  0.23     0.165 HD
ATOM     67  CD1 TRP B   6       2.865  86.224  59.475  1.00  0.00     0.096 A 
ENDBRANCH  57  58
ENDBRANCH  56  57
BRANCH  56  68
ATOM     68  C   TRP B   6       1.609  84.924  63.133  1.00  0.00     0.241 C 
ATOM     69  N   VAL B   7       2.330  84.191  63.976  1.00  6.11    -0.344 N 
ATOM     70  H   VAL B   7       3.145  84.573  64.363  1.00  0.23     0.163 HD
ATOM     71  O   TRP B   6       0.574  84.516  62.603  1.00  0.00    -0.271 OA
BRANCH  69  72
ATOM     72  CA  VAL B   7       1.938  82.835  64.340  1.00  5.65     0.189 C 
BRANCH  72  73
ATOM     73  CB  VAL B   7       2.986  81.808  63.869  1.00  1.15     0.010 C 
ATOM     74  CG1 VAL B   7       2.328  80.720  63.032  1.00  4.96     0.012 C 
ATOM     75  CG2 VAL B   7       4.097  82.492  63.086  1.00  9.83     0.012 C 
ENDBRANCH  72  73
BRANCH  72  76
ATOM     76  C   VAL B   7       1.752  82.701  65.849  1.00  4.44     0.197 C 
ATOM     77  OXT VAL B   7       0.827  83.340  66.390  1.00  0.00    -0.646 OA
ATOM     78  O   VAL B   7       2.535  81.957  66.475  1.00  0.00    -0.646 OA
ENDBRANCH  72  76
ENDBRANCH  69  72
ENDBRANCH  56  68
ENDBRANCH  53  56
ENDBRANCH  47  52
ENDBRANCH  45  47
ENDBRANCH   1  43
TORSDOF 30
ENDMDL
MODEL 2
REMARK VINA RESULT:      -5.6      3.286      6.495
REMARK  30 active torsions:
REMARK  status: ('A' for Active; 'I' for Inactive)
REMARK    1  A    between atoms: N_1  and  CA_2 
REMARK    2  A    between atoms: CA_2  and  CB_5 
REMARK    3  A    between atoms: CA_2  and  C_3 
REMARK       I    between atoms: C_3  and  N_14 
REMARK    4  A    between atoms: CB_5  and  CG_6 
REMARK    5  A    between atoms: CG_6  and  CD_7 
REMARK    6  A    between atoms: CD_7  and  CE_8 
REMARK    7  A    between atoms: CE_8  and  NZ_9 
REMARK    8  A    between atoms: N_14  and  CA_15 
REMARK    9  A    between atoms: CA_15  and  C_16 
REMARK   10  A    between atoms: CA_15  and  CB_18 
REMARK       I    between atoms: C_16  and  N_22 
REMARK   11  A    between atoms: CB_18  and  SG_19 
REMARK   12  A    between atoms: N_22  and  CA_23 
REMARK   13  A    between atoms: CA_23  and  CB_26 
REMARK   14  A    between atoms: CA_23  and  C_24 
REMARK       I    between atoms: C_24  and  N_34 
REMARK   15  A    between atoms: CB_26  and  CG_27 
REMARK   16  A    between atoms: N_34  and  CA_35 
REMARK   17  A    between atoms: CA_35  and  CB_38 
REMARK   18  A    between atoms: CA_35  and  C_36 
REMARK       I    between atoms: C_36  and  N_51 
REMARK   19  A    between atoms: CB_38  and  CG_39 
REMARK       I    between atoms: CG_39  and  ND2_40 
REMARK   20  A    between atoms: CA_45  and  N_51 
REMARK   21  A    between atoms: CA_45  and  CB_47 
REMARK   22  A    between atoms: CA_45  and  C_46 
REMARK       I    between atoms: C_46  and  N_67 
REMARK   23  A    between atoms: CB_47  and  OG1_53 
REMARK   24  A    between atoms: CA_54  and  CB_56 
REMARK   25  A    between atoms: CA_54  and  N_67 
REMARK   26  A    between atoms: CA_54  and  C_55 
REMARK       I    between atoms: C_55  and  N_76 
REMARK   27  A    between atoms: CB_56  and  CG_57 
REMARK   28  A    between atoms: CA_70  and  N_76 
REMARK   29  A    between atoms: CA_70  and  CB_72 
REMARK   30  A    between atoms: CA_70  and  C_71 
ROOT
ATOM      1  CA  ASN B   4       7.120  88.725  68.847  1.00  0.00     0.185 C 
ENDROOT
BRANCH   1   2
ATOM      2  N   ASN B   4       8.004  89.011  67.721  1.00  0.00    -0.346 N 
ATOM      3  H   ASN B   4       7.704  88.800  66.810  1.00  0.00     0.163 HD
ATOM      4  C   PHE B   3       9.211  89.553  67.897  1.00  0.00     0.241 C 
ATOM      5  O   PHE B   3       9.639  89.835  69.028  1.00  0.00    -0.271 OA
BRANCH   4   6
ATOM      6  CA  PHE B   3      10.069  89.789  66.676  1.00  0.00     0.180 C 
BRANCH   6   7
ATOM      7  CB  PHE B   3      11.459  90.325  67.134  1.00  0.00     0.073 C 
BRANCH   7   8
ATOM      8  CG  PHE B   3      12.467  90.654  66.021  1.00  0.00    -0.056 A 
ATOM      9  CD1 PHE B   3      13.555  91.489  66.299  1.00  0.00     0.007 A 
ATOM     10  CE1 PHE B   3      14.430  91.862  65.285  1.00  0.00     0.001 A 
ATOM     11  CZ  PHE B   3      14.233  91.389  63.990  1.00  0.00     0.000 A 
ATOM     12  CE2 PHE B   3      13.158  90.548  63.707  1.00  0.00     0.001 A 
ATOM     13  CD2 PHE B   3      12.275  90.183  64.721  1.00  0.00     0.007 A 
ENDBRANCH   7   8
ENDBRANCH   6   7
BRANCH   6  14
ATOM     14  N   PHE B   3       9.437  90.742  65.770  1.00  0.00    -0.346 N 
ATOM     15  C   CYS B   2       8.610  90.339  64.787  1.00  0.00     0.241 C 
ATOM     16  O   CYS B   2       8.346  89.156  64.595  1.00  0.00    -0.271 OA
ATOM     17  H   PHE B   3       9.619  91.697  65.878  1.00  0.00     0.163 HD
BRANCH  15  18
ATOM     18  CA  CYS B   2       7.992  91.437  63.953  1.00  0.00     0.185 C 
BRANCH  18  19
ATOM     19  N   CYS B   2       8.953  92.509  63.706  1.00  0.00    -0.345 N 
ATOM     20  H   CYS B   2       9.495  92.489  62.887  1.00  0.00     0.163 HD
ATOM     21  C   LYS B   1       9.112  93.518  64.568  1.00  0.00     0.254 C 
ATOM     22  O   LYS B   1       8.422  93.625  65.588  1.00  0.00    -0.271 OA
BRANCH  21  23
ATOM     23  CA  LYS B   1      10.151  94.551  64.202  1.00  0.00     0.350 C 
BRANCH  23  24
ATOM     24  N   LYS B   1      10.458  95.410  65.342  1.00  0.00     0.312 N 
ATOM     25  H   LYS B   1      10.812  96.355  64.993  1.00  0.00     0.359 HD
ENDBRANCH  23  24
BRANCH  23  26
ATOM     26  CB  LYS B   1      11.455  93.873  63.700  1.00  0.00     0.048 C 
BRANCH  26  27
ATOM     27  CG  LYS B   1      12.725  94.727  63.939  1.00  0.00     0.004 C 
BRANCH  27  28
ATOM     28  CD  LYS B   1      13.590  94.958  62.697  1.00  0.00     0.027 C 
BRANCH  28  29
ATOM     29  CE  LYS B   1      13.139  96.248  61.999  1.00  0.00     0.229 C 
BRANCH  29  30
ATOM     30  NZ  LYS B   1      12.440  95.909  60.748  1.00  0.00    -0.079 N 
ATOM     31  HZ3 LYS B   1      11.618  96.496  60.713  1.00  0.00     0.274 HD
ATOM     32  HZ2 LYS B   1      12.182  94.918  60.720  1.00  0.00     0.274 HD
ATOM     33  HZ1 LYS B   1      13.051  96.068  59.937  1.00  0.00     0.274 HD
ENDBRANCH  29  30
ENDBRANCH  28  29
ENDBRANCH  27  28
ENDBRANCH  26  27
ENDBRANCH  23  26
ENDBRANCH  21  23
ENDBRANCH  18  19
BRANCH  18  34
ATOM     34  CB  CYS B   2       7.471  90.924  62.597  1.00  0.00     0.105 C 
BRANCH  34  35
ATOM     35  SG  CYS B   2       6.664  92.254  61.677  1.00  0.00    -0.180 SA
ATOM     36  HG  CYS B   2       5.851  92.651  62.652  1.00  0.00     0.101 HD
ENDBRANCH  34  35
ENDBRANCH  18  34
ENDBRANCH  15  18
ENDBRANCH   6  14
ENDBRANCH   4   6
ENDBRANCH   1   2
BRANCH   1  37
ATOM     37  CB  ASN B   4       6.088  89.879  69.002  1.00  0.00     0.137 C 
BRANCH  37  38
ATOM     38  CG  ASN B   4       5.896  90.804  67.796  1.00  0.00     0.217 C 
ATOM     39  ND2 ASN B   4       4.819  90.675  67.068  1.00  0.00    -0.370 N 
ATOM     40 1HD2 ASN B   4       4.714  91.432  66.388  1.00  0.00     0.159 HD
ATOM     41 2HD2 ASN B   4       4.123  90.003  67.389  1.00  0.00     0.159 HD
ATOM     42  OD1 ASN B   4       6.704  91.673  67.506  1.00  0.00    -0.274 OA
ENDBRANCH  37  38
ENDBRANCH   1  37
BRANCH   1  43
ATOM     43  C   ASN B   4       6.418  87.401  68.658  1.00  0.00     0.241 C 
ATOM     44  O   ASN B   4       7.000  86.439  68.152  1.00  0.00    -0.271 OA
ATOM     45  N   THR B   5       5.143  87.357  69.038  1.00  7.70    -0.344 N 
ATOM     46  H   THR B   5       4.735  88.160  69.424  1.00  0.23     0.163 HD
BRANCH  45  47
ATOM     47  CA  THR B   5       4.338  86.146  68.906  1.00  7.88     0.205 C 
BRANCH  47  48
ATOM     48  CB  THR B   5       3.968  85.602  70.287  1.00  4.05     0.146 C 
ATOM     49  CG2 THR B   5       5.134  84.965  71.011  1.00  3.72     0.042 C 
BRANCH  48  50
ATOM     50  OG1 THR B   5       3.463  86.636  71.114  1.00  7.31    -0.393 OA
ATOM     51  HG1 THR B   5       4.152  87.286  71.270  1.00  0.23     0.210 HD
ENDBRANCH  48  50
ENDBRANCH  47  48
BRANCH  47  52
ATOM     52  C   THR B   5       3.074  86.426  68.101  1.00  7.05     0.243 C 
ATOM     53  N   TRP B   6       3.225  87.163  67.006  1.00  0.00    -0.346 N 
ATOM     54  H   TRP B   6       4.118  87.486  66.766  1.00  0.23     0.163 HD
ATOM     55  O   THR B   5       1.984  85.987  68.467  1.00  6.06    -0.271 OA
BRANCH  53  56
ATOM     56  CA  TRP B   6       2.093  87.504  66.154  1.00  0.00     0.181 C 
BRANCH  56  57
ATOM     57  CB  TRP B   6       1.283  86.250  65.824  1.00  0.00     0.075 C 
BRANCH  57  58
ATOM     58  CG  TRP B   6       1.907  85.418  64.745  1.00  0.00    -0.028 A 
ATOM     59  CD2 TRP B   6       2.228  84.023  64.816  1.00  0.00    -0.002 A 
ATOM     60  CE2 TRP B   6       2.789  83.662  63.576  1.00  0.00     0.042 A 
ATOM     61  CE3 TRP B   6       2.096  83.048  65.807  1.00  0.00     0.014 A 
ATOM     62  CZ2 TRP B   6       3.216  82.365  63.304  1.00  0.00     0.030 A 
ATOM     63  NE1 TRP B   6       2.808  84.784  62.789  1.00  0.00    -0.365 N 
ATOM     64  CH2 TRP B   6       3.075  81.429  64.292  1.00  0.00     0.002 A 
ATOM     65  CZ3 TRP B   6       2.521  81.759  65.534  1.00  0.00     0.001 A 
ATOM     66  HE1 TRP B   6       3.146  84.830  61.870  1.00  0.23     0.165 HD
ATOM     67  CD1 TRP B   6       2.277  85.834  63.499  1.00  0.00     0.096 A 
ENDBRANCH  57  58
ENDBRANCH  56  57
BRANCH  56  68
ATOM     68  C   TRP B   6       1.201  88.545  66.822  1.00  0.00     0.241 C 
ATOM     69  N   VAL B   7       1.821  89.607  67.330  1.00  6.11    -0.344 N 
ATOM     70  H   VAL B   7       2.795  89.672  67.253  1.00  0.23     0.163 HD
ATOM     71  O   TRP B   6      -0.019  88.388  66.880  1.00  0.00    -0.271 OA
BRANCH  69  72
ATOM     72  CA  VAL B   7       1.088  90.674  67.998  1.00  5.65     0.189 C 
BRANCH  72  73
ATOM     73  CB  VAL B   7       1.735  91.032  69.350  1.00  1.15     0.010 C 
ATOM     74  CG1 VAL B   7       0.676  91.477  70.348  1.00  4.96     0.012 C 
ATOM     75  CG2 VAL B   7       2.529  89.854  69.896  1.00  9.83     0.012 C 
ENDBRANCH  72  73
BRANCH  72  76
ATOM     76  C   VAL B   7       1.023  91.926  67.129  1.00  4.44     0.197 C 
ATOM     77  OXT VAL B   7       2.049  92.269  66.507  1.00  0.00    -0.646 OA
ATOM     78  O   VAL B   7      -0.056  92.553  67.078  1.00  0.00    -0.646 OA
ENDBRANCH  72  76
ENDBRANCH  69  72
ENDBRANCH  56  68
ENDBRANCH  53  56
ENDBRANCH  47  52
ENDBRANCH  45  47
ENDBRANCH   1  43
TORSDOF 30
ENDMDL
MODEL 3
REMARK VINA RESULT:      -5.2      3.611      5.952
REMARK  30 active torsions:
REMARK  status: ('A' for Active; 'I' for Inactive)
REMARK    1  A    between atoms: N_1  and  CA_2 
REMARK    2  A    between atoms: CA_2  and  CB_5 
REMARK    3  A    between atoms: CA_2  and  C_3 
REMARK       I    between atoms: C_3  and  N_14 
REMARK    4  A    between atoms: CB_5  and  CG_6 
REMARK    5  A    between atoms: CG_6  and  CD_7 
REMARK    6  A    between atoms: CD_7  and  CE_8 
REMARK    7  A    between atoms: CE_8  and  NZ_9 
REMARK    8  A    between atoms: N_14  and  CA_15 
REMARK    9  A    between atoms: CA_15  and  C_16 
REMARK   10  A    between atoms: CA_15  and  CB_18 
REMARK       I    between atoms: C_16  and  N_22 
REMARK   11  A    between atoms: CB_18  and  SG_19 
REMARK   12  A    between atoms: N_22  and  CA_23 
REMARK   13  A    between atoms: CA_23  and  CB_26 
REMARK   14  A    between atoms: CA_23  and  C_24 
REMARK       I    between atoms: C_24  and  N_34 
REMARK   15  A    between atoms: CB_26  and  CG_27 
REMARK   16  A    between atoms: N_34  and  CA_35 
REMARK   17  A    between atoms: CA_35  and  CB_38 
REMARK   18  A    between atoms: CA_35  and  C_36 
REMARK       I    between atoms: C_36  and  N_51 
REMARK   19  A    between atoms: CB_38  and  CG_39 
REMARK       I    between atoms: CG_39  and  ND2_40 
REMARK   20  A    between atoms: CA_45  and  N_51 
REMARK   21  A    between atoms: CA_45  and  CB_47 
REMARK   22  A    between atoms: CA_45  and  C_46 
REMARK       I    between atoms: C_46  and  N_67 
REMARK   23  A    between atoms: CB_47  and  OG1_53 
REMARK   24  A    between atoms: CA_54  and  CB_56 
REMARK   25  A    between atoms: CA_54  and  N_67 
REMARK   26  A    between atoms: CA_54  and  C_55 
REMARK       I    between atoms: C_55  and  N_76 
REMARK   27  A    between atoms: CB_56  and  CG_57 
REMARK   28  A    between atoms: CA_70  and  N_76 
REMARK   29  A    between atoms: CA_70  and  CB_72 
REMARK   30  A    between atoms: CA_70  and  C_71 
ROOT
ATOM      1  CA  ASN B   4       6.663  88.808  68.540  1.00  0.00     0.185 C 
ENDROOT
BRANCH   1   2
ATOM      2  N   ASN B   4       7.602  89.141  67.473  1.00  0.00    -0.346 N 
ATOM      3  H   ASN B   4       7.505  88.707  66.597  1.00  0.00     0.163 HD
ATOM      4  C   PHE B   3       8.589  90.020  67.656  1.00  0.00     0.241 C 
ATOM      5  O   PHE B   3       8.756  90.593  68.744  1.00  0.00    -0.271 OA
BRANCH   4   6
ATOM      6  CA  PHE B   3       9.530  90.281  66.503  1.00  0.00     0.180 C 
BRANCH   6   7
ATOM      7  CB  PHE B   3      10.987  90.352  67.051  1.00  0.00     0.073 C 
BRANCH   7   8
ATOM      8  CG  PHE B   3      12.080  90.742  66.041  1.00  0.00    -0.056 A 
ATOM      9  CD1 PHE B   3      12.018  90.251  64.732  1.00  0.00     0.007 A 
ATOM     10  CE1 PHE B   3      13.039  90.527  63.830  1.00  0.00     0.001 A 
ATOM     11  CZ  PHE B   3      14.121  91.310  64.226  1.00  0.00     0.000 A 
ATOM     12  CE2 PHE B   3      14.185  91.812  65.525  1.00  0.00     0.001 A 
ATOM     13  CD2 PHE B   3      13.167  91.526  66.431  1.00  0.00     0.007 A 
ENDBRANCH   7   8
ENDBRANCH   6   7
BRANCH   6  14
ATOM     14  N   PHE B   3       9.189  91.526  65.822  1.00  0.00    -0.346 N 
ATOM     15  C   CYS B   2       8.606  91.529  64.609  1.00  0.00     0.241 C 
ATOM     16  O   CYS B   2       8.334  90.493  64.008  1.00  0.00    -0.271 OA
ATOM     17  H   PHE B   3       9.389  92.379  66.256  1.00  0.00     0.163 HD
BRANCH  15  18
ATOM     18  CA  CYS B   2       8.268  92.888  64.042  1.00  0.00     0.185 C 
BRANCH  18  19
ATOM     19  N   CYS B   2       9.362  93.399  63.221  1.00  0.00    -0.345 N 
ATOM     20  H   CYS B   2       9.303  93.323  62.242  1.00  0.00     0.163 HD
ATOM     21  C   LYS B   1      10.441  93.966  63.767  1.00  0.00     0.254 C 
ATOM     22  O   LYS B   1      10.547  94.135  64.986  1.00  0.00    -0.271 OA
BRANCH  21  23
ATOM     23  CA  LYS B   1      11.508  94.435  62.806  1.00  0.00     0.350 C 
BRANCH  23  24
ATOM     24  N   LYS B   1      10.991  95.468  61.914  1.00  0.00     0.312 N 
ATOM     25  H   LYS B   1       9.937  95.347  61.799  1.00  0.00     0.359 HD
ENDBRANCH  23  24
BRANCH  23  26
ATOM     26  CB  LYS B   1      12.743  94.983  63.572  1.00  0.00     0.048 C 
BRANCH  26  27
ATOM     27  CG  LYS B   1      14.011  95.104  62.691  1.00  0.00     0.004 C 
BRANCH  27  28
ATOM     28  CD  LYS B   1      15.285  94.527  63.313  1.00  0.00     0.027 C 
BRANCH  28  29
ATOM     29  CE  LYS B   1      16.342  95.635  63.422  1.00  0.00     0.229 C 
BRANCH  29  30
ATOM     30  NZ  LYS B   1      15.788  96.767  64.185  1.00  0.00    -0.079 N 
ATOM     31  HZ3 LYS B   1      15.099  97.201  63.588  1.00  0.00     0.274 HD
ATOM     32  HZ2 LYS B   1      16.520  97.436  64.444  1.00  0.00     0.274 HD
ATOM     33  HZ1 LYS B   1      15.373  96.442  65.066  1.00  0.00     0.274 HD
ENDBRANCH  29  30
ENDBRANCH  28  29
ENDBRANCH  27  28
ENDBRANCH  26  27
ENDBRANCH  23  26
ENDBRANCH  21  23
ENDBRANCH  18  19
BRANCH  18  34
ATOM     34  CB  CYS B   2       6.984  92.869  63.191  1.00  0.00     0.105 C 
BRANCH  34  35
ATOM     35  SG  CYS B   2       7.343  93.327  61.480  1.00  0.00    -0.180 SA
ATOM     36  HG  CYS B   2       7.028  92.156  60.932  1.00  0.00     0.101 HD
ENDBRANCH  34  35
ENDBRANCH  18  34
ENDBRANCH  15  18
ENDBRANCH   6  14
ENDBRANCH   4   6
ENDBRANCH   1   2
BRANCH   1  37
ATOM     37  CB  ASN B   4       5.355  89.630  68.355  1.00  0.00     0.137 C 
BRANCH  37  38
ATOM     38  CG  ASN B   4       4.928  89.940  66.917  1.00  0.00     0.217 C 
ATOM     39  ND2 ASN B   4       4.937  91.181  66.510  1.00  0.00    -0.370 N 
ATOM     40 1HD2 ASN B   4       4.786  91.263  65.501  1.00  0.00     0.159 HD
ATOM     41 2HD2 ASN B   4       5.301  91.877  67.160  1.00  0.00     0.159 HD
ATOM     42  OD1 ASN B   4       4.602  89.063  66.131  1.00  0.00    -0.274 OA
ENDBRANCH  37  38
ENDBRANCH   1  37
BRANCH   1  43
ATOM     43  C   ASN B   4       6.367  87.328  68.556  1.00  0.00     0.241 C 
ATOM     44  O   ASN B   4       7.126  86.521  68.015  1.00  0.00    -0.271 OA
ATOM     45  N   THR B   5       5.234  86.965  69.153  1.00  7.70    -0.344 N 
ATOM     46  H   THR B   5       4.667  87.657  69.555  1.00  0.23     0.163 HD
BRANCH  45  47
ATOM     47  CA  THR B   5       4.815  85.569  69.235  1.00  7.88     0.205 C 
BRANCH  47  48
ATOM     48  CB  THR B   5       5.269  84.956  70.561  1.00  4.05     0.146 C 
ATOM     49  CG2 THR B   5       5.752  83.528  70.425  1.00  3.72     0.042 C 
BRANCH  48  50
ATOM     50  OG1 THR B   5       6.324  85.713  71.127  1.00  7.31    -0.393 OA
ATOM     51  HG1 THR B   5       6.565  86.424  70.529  1.00  0.23     0.210 HD
ENDBRANCH  48  50
ENDBRANCH  47  48
BRANCH  47  52
ATOM     52  C   THR B   5       3.300  85.454  69.101  1.00  7.05     0.243 C 
ATOM     53  N   TRP B   6       2.799  85.658  67.888  1.00  0.00    -0.346 N 
ATOM     54  H   TRP B   6       3.407  85.867  67.148  1.00  0.23     0.163 HD
ATOM     55  O   THR B   5       2.599  85.188  70.078  1.00  6.06    -0.271 OA
BRANCH  53  56
ATOM     56  CA  TRP B   6       1.367  85.580  67.629  1.00  0.00     0.181 C 
BRANCH  56  57
ATOM     57  CB  TRP B   6       0.888  86.851  66.926  1.00  0.00     0.075 C 
BRANCH  57  58
ATOM     58  CG  TRP B   6       0.763  88.020  67.855  1.00  0.00    -0.028 A 
ATOM     59  CD2 TRP B   6       0.940  89.402  67.520  1.00  0.00    -0.002 A 
ATOM     60  CE2 TRP B   6       0.721  90.146  68.694  1.00  0.00     0.042 A 
ATOM     61  CE3 TRP B   6       1.263  90.081  66.342  1.00  0.00     0.014 A 
ATOM     62  CZ2 TRP B   6       0.814  91.535  68.723  1.00  0.00     0.030 A 
ATOM     63  NE1 TRP B   6       0.425  89.258  69.696  1.00  0.00    -0.365 N 
ATOM     64  CH2 TRP B   6       1.132  92.175  67.556  1.00  0.00     0.002 A 
ATOM     65  CZ3 TRP B   6       1.355  91.461  66.373  1.00  0.00     0.001 A 
ATOM     66  HE1 TRP B   6       0.225  89.494  70.626  1.00  0.23     0.165 HD
ATOM     67  CD1 TRP B   6       0.452  87.984  69.183  1.00  0.00     0.096 A 
ENDBRANCH  57  58
ENDBRANCH  56  57
BRANCH  56  68
ATOM     68  C   TRP B   6       1.031  84.354  66.786  1.00  0.00     0.241 C 
ATOM     69  N   VAL B   7       1.738  84.200  65.671  1.00  6.11    -0.344 N 
ATOM     70  H   VAL B   7       2.425  84.861  65.447  1.00  0.23     0.163 HD
ATOM     71  O   TRP B   6       0.149  83.569  67.137  1.00  0.00    -0.271 OA
BRANCH  69  72
ATOM     72  CA  VAL B   7       1.516  83.074  64.773  1.00  5.65     0.189 C 
BRANCH  72  73
ATOM     73  CB  VAL B   7       1.363  83.546  63.314  1.00  1.15     0.010 C 
ATOM     74  CG1 VAL B   7       2.502  84.480  62.933  1.00  4.96     0.012 C 
ATOM     75  CG2 VAL B   7       1.300  82.357  62.368  1.00  9.83     0.012 C 
ENDBRANCH  72  73
BRANCH  72  76
ATOM     76  C   VAL B   7       2.662  82.070  64.854  1.00  4.44     0.197 C 
ATOM     77  OXT VAL B   7       2.565  81.125  65.663  1.00  0.00    -0.646 OA
ATOM     78  O   VAL B   7       3.647  82.239  64.106  1.00  0.00    -0.646 OA
ENDBRANCH  72  76
ENDBRANCH  69  72
ENDBRANCH  56  68
ENDBRANCH  53  56
ENDBRANCH  47  52
ENDBRANCH  45  47
ENDBRANCH   1  43
TORSDOF 30
ENDMDL
MODEL 4
REMARK VINA RESULT:      -5.0      3.930      7.966
REMARK  30 active torsions:
REMARK  status: ('A' for Active; 'I' for Inactive)
REMARK    1  A    between atoms: N_1  and  CA_2 
REMARK    2  A    between atoms: CA_2  and  CB_5 
REMARK    3  A    between atoms: CA_2  and  C_3 
REMARK       I    between atoms: C_3  and  N_14 
REMARK    4  A    between atoms: CB_5  and  CG_6 
REMARK    5  A    between atoms: CG_6  and  CD_7 
REMARK    6  A    between atoms: CD_7  and  CE_8 
REMARK    7  A    between atoms: CE_8  and  NZ_9 
REMARK    8  A    between atoms: N_14  and  CA_15 
REMARK    9  A    between atoms: CA_15  and  C_16 
REMARK   10  A    between atoms: CA_15  and  CB_18 
REMARK       I    between atoms: C_16  and  N_22 
REMARK   11  A    between atoms: CB_18  and  SG_19 
REMARK   12  A    between atoms: N_22  and  CA_23 
REMARK   13  A    between atoms: CA_23  and  CB_26 
REMARK   14  A    between atoms: CA_23  and  C_24 
REMARK       I    between atoms: C_24  and  N_34 
REMARK   15  A    between atoms: CB_26  and  CG_27 
REMARK   16  A    between atoms: N_34  and  CA_35 
REMARK   17  A    between atoms: CA_35  and  CB_38 
REMARK   18  A    between atoms: CA_35  and  C_36 
REMARK       I    between atoms: C_36  and  N_51 
REMARK   19  A    between atoms: CB_38  and  CG_39 
REMARK       I    between atoms: CG_39  and  ND2_40 
REMARK   20  A    between atoms: CA_45  and  N_51 
REMARK   21  A    between atoms: CA_45  and  CB_47 
REMARK   22  A    between atoms: CA_45  and  C_46 
REMARK       I    between atoms: C_46  and  N_67 
REMARK   23  A    between atoms: CB_47  and  OG1_53 
REMARK   24  A    between atoms: CA_54  and  CB_56 
REMARK   25  A    between atoms: CA_54  and  N_67 
REMARK   26  A    between atoms: CA_54  and  C_55 
REMARK       I    between atoms: C_55  and  N_76 
REMARK   27  A    between atoms: CB_56  and  CG_57 
REMARK   28  A    between atoms: CA_70  and  N_76 
REMARK   29  A    between atoms: CA_70  and  CB_72 
REMARK   30  A    between atoms: CA_70  and  C_71 
ROOT
ATOM      1  CA  ASN B   4       6.480  89.766  65.800  1.00  0.00     0.185 C 
ENDROOT
BRANCH   1   2
ATOM      2  N   ASN B   4       7.336  90.247  64.719  1.00  0.00    -0.346 N 
ATOM      3  H   ASN B   4       7.123  89.999  63.793  1.00  0.00     0.163 HD
ATOM      4  C   PHE B   3       8.401  91.016  64.956  1.00  0.00     0.241 C 
ATOM      5  O   PHE B   3       8.714  91.355  66.109  1.00  0.00    -0.271 OA
BRANCH   4   6
ATOM      6  CA  PHE B   3       9.244  91.443  63.779  1.00  0.00     0.180 C 
BRANCH   6   7
ATOM      7  CB  PHE B   3       9.891  92.825  64.099  1.00  0.00     0.073 C 
BRANCH   7   8
ATOM      8  CG  PHE B   3      11.426  92.892  64.043  1.00  0.00    -0.056 A 
ATOM      9  CD1 PHE B   3      12.056  94.119  63.803  1.00  0.00     0.007 A 
ATOM     10  CE1 PHE B   3      13.438  94.183  63.669  1.00  0.00     0.001 A 
ATOM     11  CZ  PHE B   3      14.202  93.024  63.791  1.00  0.00     0.000 A 
ATOM     12  CE2 PHE B   3      13.583  91.801  64.042  1.00  0.00     0.001 A 
ATOM     13  CD2 PHE B   3      12.198  91.734  64.165  1.00  0.00     0.007 A 
ENDBRANCH   7   8
ENDBRANCH   6   7
BRANCH   6  14
ATOM     14  N   PHE B   3       8.440  91.536  62.565  1.00  0.00    -0.346 N 
ATOM     15  C   CYS B   2       7.341  92.312  62.506  1.00  0.00     0.241 C 
ATOM     16  O   CYS B   2       6.953  92.976  63.463  1.00  0.00    -0.271 OA
ATOM     17  H   PHE B   3       8.703  91.023  61.776  1.00  0.00     0.163 HD
BRANCH  15  18
ATOM     18  CA  CYS B   2       6.630  92.348  61.173  1.00  0.00     0.185 C 
BRANCH  18  19
ATOM     19  N   CYS B   2       6.947  91.164  60.380  1.00  0.00    -0.345 N 
ATOM     20  H   CYS B   2       7.431  91.270  59.530  1.00  0.00     0.163 HD
ATOM     21  C   LYS B   1       6.596  89.939  60.781  1.00  0.00     0.254 C 
ATOM     22  O   LYS B   1       6.034  89.738  61.864  1.00  0.00    -0.271 OA
BRANCH  21  23
ATOM     23  CA  LYS B   1       6.968  88.801  59.859  1.00  0.00     0.350 C 
BRANCH  23  24
ATOM     24  N   LYS B   1       8.011  89.207  58.922  1.00  0.00     0.312 N 
ATOM     25  H   LYS B   1       8.502  90.080  59.291  1.00  0.00     0.359 HD
ENDBRANCH  23  24
BRANCH  23  26
ATOM     26  CB  LYS B   1       7.450  87.566  60.668  1.00  0.00     0.048 C 
BRANCH  26  27
ATOM     27  CG  LYS B   1       6.820  86.233  60.191  1.00  0.00     0.004 C 
BRANCH  27  28
ATOM     28  CD  LYS B   1       6.059  86.319  58.865  1.00  0.00     0.027 C 
BRANCH  28  29
ATOM     29  CE  LYS B   1       6.956  85.799  57.733  1.00  0.00     0.229 C 
BRANCH  29  30
ATOM     30  NZ  LYS B   1       7.634  84.567  58.172  1.00  0.00    -0.079 N 
ATOM     31  HZ3 LYS B   1       8.268  84.311  57.428  1.00  0.00     0.274 HD
ATOM     32  HZ2 LYS B   1       6.962  83.815  58.353  1.00  0.00     0.274 HD
ATOM     33  HZ1 LYS B   1       8.133  84.723  59.056  1.00  0.00     0.274 HD
ENDBRANCH  29  30
ENDBRANCH  28  29
ENDBRANCH  27  28
ENDBRANCH  26  27
ENDBRANCH  23  26
ENDBRANCH  21  23
ENDBRANCH  18  19
BRANCH  18  34
ATOM     34  CB  CYS B   2       5.100  92.440  61.325  1.00  0.00     0.105 C 
BRANCH  34  35
ATOM     35  SG  CYS B   2       4.333  92.957  59.771  1.00  0.00    -0.180 SA
ATOM     36  HG  CYS B   2       3.069  92.785  60.153  1.00  0.00     0.101 HD
ENDBRANCH  34  35
ENDBRANCH  18  34
ENDBRANCH  15  18
ENDBRANCH   6  14
ENDBRANCH   4   6
ENDBRANCH   1   2
BRANCH   1  37
ATOM     37  CB  ASN B   4       5.162  89.195  65.203  1.00  0.00     0.137 C 
BRANCH  37  38
ATOM     38  CG  ASN B   4       4.082  90.208  64.809  1.00  0.00     0.217 C 
ATOM     39  ND2 ASN B   4       2.847  89.800  64.691  1.00  0.00    -0.370 N 
ATOM     40 1HD2 ASN B   4       2.189  90.575  64.578  1.00  0.00     0.159 HD
ATOM     41 2HD2 ASN B   4       2.656  88.830  64.941  1.00  0.00     0.159 HD
ATOM     42  OD1 ASN B   4       4.334  91.389  64.623  1.00  0.00    -0.274 OA
ENDBRANCH  37  38
ENDBRANCH   1  37
BRANCH   1  43
ATOM     43  C   ASN B   4       7.190  88.721  66.626  1.00  0.00     0.241 C 
ATOM     44  O   ASN B   4       7.615  87.684  66.110  1.00  0.00    -0.271 OA
ATOM     45  N   THR B   5       7.293  88.974  67.928  1.00  7.70    -0.344 N 
ATOM     46  H   THR B   5       6.924  89.813  68.278  1.00  0.23     0.163 HD
BRANCH  45  47
ATOM     47  CA  THR B   5       7.946  88.048  68.848  1.00  7.88     0.205 C 
BRANCH  47  48
ATOM     48  CB  THR B   5       9.054  88.763  69.624  1.00  4.05     0.146 C 
ATOM     49  CG2 THR B   5      10.318  87.943  69.753  1.00  3.72     0.042 C 
BRANCH  48  50
ATOM     50  OG1 THR B   5       9.397  89.985  68.994  1.00  7.31    -0.393 OA
ATOM     51  HG1 THR B   5       9.011  90.716  69.481  1.00  0.23     0.210 HD
ENDBRANCH  48  50
ENDBRANCH  47  48
BRANCH  47  52
ATOM     52  C   THR B   5       6.932  87.452  69.820  1.00  7.05     0.243 C 
ATOM     53  N   TRP B   6       6.342  86.325  69.436  1.00  0.00    -0.346 N 
ATOM     54  H   TRP B   6       6.576  85.934  68.569  1.00  0.23     0.163 HD
ATOM     55  O   THR B   5       6.689  88.003  70.893  1.00  6.06    -0.271 OA
BRANCH  53  56
ATOM     56  CA  TRP B   6       5.353  85.658  70.273  1.00  0.00     0.181 C 
BRANCH  56  57
ATOM     57  CB  TRP B   6       3.984  85.680  69.591  1.00  0.00     0.075 C 
BRANCH  57  58
ATOM     58  CG  TRP B   6       3.089  86.763  70.111  1.00  0.00    -0.028 A 
ATOM     59  CD2 TRP B   6       3.037  88.122  69.659  1.00  0.00    -0.002 A 
ATOM     60  CE2 TRP B   6       2.051  88.777  70.422  1.00  0.00     0.042 A 
ATOM     61  CE3 TRP B   6       3.728  88.847  68.685  1.00  0.00     0.014 A 
ATOM     62  CZ2 TRP B   6       1.741  90.122  70.238  1.00  0.00     0.030 A 
ATOM     63  NE1 TRP B   6       1.529  87.859  71.296  1.00  0.00    -0.365 N 
ATOM     64  CH2 TRP B   6       2.433  90.808  69.278  1.00  0.00     0.002 A 
ATOM     65  CZ3 TRP B   6       3.418  90.183  68.504  1.00  0.00     0.001 A 
ATOM     66  HE1 TRP B   6       0.823  88.035  71.952  1.00  0.23     0.165 HD
ATOM     67  CD1 TRP B   6       2.159  86.653  71.103  1.00  0.00     0.096 A 
ENDBRANCH  57  58
ENDBRANCH  56  57
BRANCH  56  68
ATOM     68  C   TRP B   6       5.769  84.222  70.570  1.00  0.00     0.241 C 
ATOM     69  N   VAL B   7       5.165  83.278  69.854  1.00  6.11    -0.344 N 
ATOM     70  H   VAL B   7       4.500  83.540  69.185  1.00  0.23     0.163 HD
ATOM     71  O   TRP B   6       6.615  83.975  71.431  1.00  0.00    -0.271 OA
BRANCH  69  72
ATOM     72  CA  VAL B   7       5.468  81.865  70.039  1.00  5.65     0.189 C 
BRANCH  72  73
ATOM     73  CB  VAL B   7       4.193  81.004  69.938  1.00  1.15     0.010 C 
ATOM     74  CG1 VAL B   7       3.899  80.327  71.269  1.00  4.96     0.012 C 
ATOM     75  CG2 VAL B   7       3.010  81.847  69.487  1.00  9.83     0.012 C 
ENDBRANCH  72  73
BRANCH  72  76
ATOM     76  C   VAL B   7       6.482  81.378  69.008  1.00  4.44     0.197 C 
ATOM     77  OXT VAL B   7       6.080  80.640  68.086  1.00  0.00    -0.646 OA
ATOM     78  O   VAL B   7       7.670  81.742  69.133  1.00  0.00    -0.646 OA
ENDBRANCH  72  76
ENDBRANCH  69  72
ENDBRANCH  56  68
ENDBRANCH  53  56
ENDBRANCH  47  52
ENDBRANCH  45  47
ENDBRANCH   1  43
TORSDOF 30
ENDMDL
MODEL 5
REMARK VINA RESULT:      -4.8      4.005      8.496
REMARK  30 active torsions:
REMARK  status: ('A' for Active; 'I' for Inactive)
REMARK    1  A    between atoms: N_1  and  CA_2 
REMARK    2  A    between atoms: CA_2  and  CB_5 
REMARK    3  A    between atoms: CA_2  and  C_3 
REMARK       I    between atoms: C_3  and  N_14 
REMARK    4  A    between atoms: CB_5  and  CG_6 
REMARK    5  A    between atoms: CG_6  and  CD_7 
REMARK    6  A    between atoms: CD_7  and  CE_8 
REMARK    7  A    between atoms: CE_8  and  NZ_9 
REMARK    8  A    between atoms: N_14  and  CA_15 
REMARK    9  A    between atoms: CA_15  and  C_16 
REMARK   10  A    between atoms: CA_15  and  CB_18 
REMARK       I    between atoms: C_16  and  N_22 
REMARK   11  A    between atoms: CB_18  and  SG_19 
REMARK   12  A    between atoms: N_22  and  CA_23 
REMARK   13  A    between atoms: CA_23  and  CB_26 
REMARK   14  A    between atoms: CA_23  and  C_24 
REMARK       I    between atoms: C_24  and  N_34 
REMARK   15  A    between atoms: CB_26  and  CG_27 
REMARK   16  A    between atoms: N_34  and  CA_35 
REMARK   17  A    between atoms: CA_35  and  CB_38 
REMARK   18  A    between atoms: CA_35  and  C_36 
REMARK       I    between atoms: C_36  and  N_51 
REMARK   19  A    between atoms: CB_38  and  CG_39 
REMARK       I    between atoms: CG_39  and  ND2_40 
REMARK   20  A    between atoms: CA_45  and  N_51 
REMARK   21  A    between atoms: CA_45  and  CB_47 
REMARK   22  A    between atoms: CA_45  and  C_46 
REMARK       I    between atoms: C_46  and  N_67 
REMARK   23  A    between atoms: CB_47  and  OG1_53 
REMARK   24  A    between atoms: CA_54  and  CB_56 
REMARK   25  A    between atoms: CA_54  and  N_67 
REMARK   26  A    between atoms: CA_54  and  C_55 
REMARK       I    between atoms: C_55  and  N_76 
REMARK   27  A    between atoms: CB_56  and  CG_57 
REMARK   28  A    between atoms: CA_70  and  N_76 
REMARK   29  A    between atoms: CA_70  and  CB_72 
REMARK   30  A    between atoms: CA_70  and  C_71 
ROOT
ATOM      1  CA  ASN B   4       7.337  88.921  63.556  1.00  0.00     0.185 C 
ENDROOT
BRANCH   1   2
ATOM      2  N   ASN B   4       7.812  90.103  62.841  1.00  0.00    -0.346 N 
ATOM      3  H   ASN B   4       8.335  89.987  62.018  1.00  0.00     0.163 HD
ATOM      4  C   PHE B   3       7.553  91.337  63.278  1.00  0.00     0.241 C 
ATOM      5  O   PHE B   3       6.899  91.537  64.314  1.00  0.00    -0.271 OA
BRANCH   4   6
ATOM      6  CA  PHE B   3       8.108  92.500  62.489  1.00  0.00     0.180 C 
BRANCH   6   7
ATOM      7  CB  PHE B   3       8.551  93.615  63.483  1.00  0.00     0.073 C 
BRANCH   7   8
ATOM      8  CG  PHE B   3       9.995  93.534  64.004  1.00  0.00    -0.056 A 
ATOM      9  CD1 PHE B   3      10.511  94.580  64.777  1.00  0.00     0.007 A 
ATOM     10  CE1 PHE B   3      11.839  94.560  65.187  1.00  0.00     0.001 A 
ATOM     11  CZ  PHE B   3      12.656  93.486  64.843  1.00  0.00     0.000 A 
ATOM     12  CE2 PHE B   3      12.147  92.434  64.084  1.00  0.00     0.001 A 
ATOM     13  CD2 PHE B   3      10.819  92.459  63.663  1.00  0.00     0.007 A 
ENDBRANCH   7   8
ENDBRANCH   6   7
BRANCH   6  14
ATOM     14  N   PHE B   3       7.112  93.024  61.560  1.00  0.00    -0.346 N 
ATOM     15  C   CYS B   2       5.968  93.583  61.995  1.00  0.00     0.241 C 
ATOM     16  O   CYS B   2       5.695  93.680  63.188  1.00  0.00    -0.271 OA
ATOM     17  H   PHE B   3       7.279  92.967  60.598  1.00  0.00     0.163 HD
BRANCH  15  18
ATOM     18  CA  CYS B   2       5.049  94.124  60.924  1.00  0.00     0.185 C 
BRANCH  18  19
ATOM     19  N   CYS B   2       4.788  93.115  59.901  1.00  0.00    -0.345 N 
ATOM     20  H   CYS B   2       4.892  93.354  58.953  1.00  0.00     0.163 HD
ATOM     21  C   LYS B   1       4.410  91.875  60.224  1.00  0.00     0.254 C 
ATOM     22  O   LYS B   1       4.313  91.502  61.398  1.00  0.00    -0.271 OA
BRANCH  21  23
ATOM     23  CA  LYS B   1       4.153  90.934  59.070  1.00  0.00     0.350 C 
BRANCH  23  24
ATOM     24  N   LYS B   1       5.335  90.126  58.781  1.00  0.00     0.312 N 
ATOM     25  H   LYS B   1       5.296  89.221  59.345  1.00  0.00     0.359 HD
ENDBRANCH  23  24
BRANCH  23  26
ATOM     26  CB  LYS B   1       2.950  90.000  59.373  1.00  0.00     0.048 C 
BRANCH  26  27
ATOM     27  CG  LYS B   1       3.135  88.561  58.828  1.00  0.00     0.004 C 
BRANCH  27  28
ATOM     28  CD  LYS B   1       2.695  87.449  59.784  1.00  0.00     0.027 C 
BRANCH  28  29
ATOM     29  CE  LYS B   1       3.424  86.149  59.418  1.00  0.00     0.229 C 
BRANCH  29  30
ATOM     30  NZ  LYS B   1       4.754  86.138  60.052  1.00  0.00    -0.079 N 
ATOM     31  HZ3 LYS B   1       5.200  87.007  59.792  1.00  0.00     0.274 HD
ATOM     32  HZ2 LYS B   1       5.310  85.335  59.740  1.00  0.00     0.274 HD
ATOM     33  HZ1 LYS B   1       4.669  86.048  61.071  1.00  0.00     0.274 HD
ENDBRANCH  29  30
ENDBRANCH  28  29
ENDBRANCH  27  28
ENDBRANCH  26  27
ENDBRANCH  23  26
ENDBRANCH  21  23
ENDBRANCH  18  19
BRANCH  18  34
ATOM     34  CB  CYS B   2       3.701  94.606  61.493  1.00  0.00     0.105 C 
BRANCH  34  35
ATOM     35  SG  CYS B   2       3.502  96.386  61.251  1.00  0.00    -0.180 SA
ATOM     36  HG  CYS B   2       2.682  96.313  60.205  1.00  0.00     0.101 HD
ENDBRANCH  34  35
ENDBRANCH  18  34
ENDBRANCH  15  18
ENDBRANCH   6  14
ENDBRANCH   4   6
ENDBRANCH   1   2
BRANCH   1  37
ATOM     37  CB  ASN B   4       7.391  87.687  62.610  1.00  0.00     0.137 C 
BRANCH  37  38
ATOM     38  CG  ASN B   4       7.699  87.957  61.134  1.00  0.00     0.217 C 
ATOM     39  ND2 ASN B   4       8.898  87.703  60.683  1.00  0.00    -0.370 N 
ATOM     40 1HD2 ASN B   4       8.955  87.771  59.664  1.00  0.00     0.159 HD
ATOM     41 2HD2 ASN B   4       9.552  87.265  61.331  1.00  0.00     0.159 HD
ATOM     42  OD1 ASN B   4       6.854  88.382  60.359  1.00  0.00    -0.274 OA
ENDBRANCH  37  38
ENDBRANCH   1  37
BRANCH   1  43
ATOM     43  C   ASN B   4       8.157  88.678  64.800  1.00  0.00     0.241 C 
ATOM     44  O   ASN B   4       8.989  87.770  64.845  1.00  0.00    -0.271 OA
ATOM     45  N   THR B   5       7.899  89.473  65.836  1.00  7.70    -0.344 N 
ATOM     46  H   THR B   5       7.216  90.170  65.739  1.00  0.23     0.163 HD
BRANCH  45  47
ATOM     47  CA  THR B   5       8.608  89.346  67.105  1.00  7.88     0.205 C 
BRANCH  47  48
ATOM     48  CB  THR B   5       9.514  90.557  67.331  1.00  4.05     0.146 C 
ATOM     49  CG2 THR B   5      10.915  90.363  66.794  1.00  3.72     0.042 C 
BRANCH  48  50
ATOM     50  OG1 THR B   5       8.973  91.710  66.710  1.00  7.31    -0.393 OA
ATOM     51  HG1 THR B   5       9.686  92.257  66.373  1.00  0.23     0.210 HD
ENDBRANCH  48  50
ENDBRANCH  47  48
BRANCH  47  52
ATOM     52  C   THR B   5       7.621  89.212  68.261  1.00  7.05     0.243 C 
ATOM     53  N   TRP B   6       7.040  88.026  68.404  1.00  0.00    -0.346 N 
ATOM     54  H   TRP B   6       7.263  87.305  67.779  1.00  0.23     0.163 HD
ATOM     55  O   THR B   5       7.390  90.165  69.005  1.00  6.06    -0.271 OA
BRANCH  53  56
ATOM     56  CA  TRP B   6       6.076  87.771  69.466  1.00  0.00     0.181 C 
BRANCH  56  57
ATOM     57  CB  TRP B   6       4.764  87.252  68.875  1.00  0.00     0.075 C 
BRANCH  57  58
ATOM     58  CG  TRP B   6       3.690  88.295  68.832  1.00  0.00    -0.028 A 
ATOM     59  CD2 TRP B   6       3.547  89.338  67.860  1.00  0.00    -0.002 A 
ATOM     60  CE2 TRP B   6       2.398  90.075  68.205  1.00  0.00     0.042 A 
ATOM     61  CE3 TRP B   6       4.279  89.719  66.733  1.00  0.00     0.014 A 
ATOM     62  CZ2 TRP B   6       1.966  91.169  67.461  1.00  0.00     0.030 A 
ATOM     63  NE1 TRP B   6       1.867  89.506  69.334  1.00  0.00    -0.365 N 
ATOM     64  CH2 TRP B   6       2.701  91.522  66.363  1.00  0.00     0.002 A 
ATOM     65  CZ3 TRP B   6       3.848  90.808  65.995  1.00  0.00     0.001 A 
ATOM     66  HE1 TRP B   6       1.062  89.812  69.801  1.00  0.23     0.165 HD
ATOM     67  CD1 TRP B   6       2.649  88.439  69.704  1.00  0.00     0.096 A 
ENDBRANCH  57  58
ENDBRANCH  56  57
BRANCH  56  68
ATOM     68  C   TRP B   6       6.629  86.772  70.477  1.00  0.00     0.241 C 
ATOM     69  N   VAL B   7       7.733  86.126  70.115  1.00  6.11    -0.344 N 
ATOM     70  H   VAL B   7       8.132  86.315  69.241  1.00  0.23     0.163 HD
ATOM     71  O   TRP B   6       6.066  86.589  71.557  1.00  0.00    -0.271 OA
BRANCH  69  72
ATOM     72  CA  VAL B   7       8.364  85.142  70.985  1.00  5.65     0.189 C 
BRANCH  72  73
ATOM     73  CB  VAL B   7       8.053  83.706  70.520  1.00  1.15     0.010 C 
ATOM     74  CG1 VAL B   7       6.897  83.124  71.322  1.00  4.96     0.012 C 
ATOM     75  CG2 VAL B   7       7.744  83.678  69.031  1.00  9.83     0.012 C 
ENDBRANCH  72  73
BRANCH  72  76
ATOM     76  C   VAL B   7       9.877  85.335  71.029  1.00  4.44     0.197 C 
ATOM     77  OXT VAL B   7      10.350  86.405  70.597  1.00  0.00    -0.646 OA
ATOM     78  O   VAL B   7      10.576  84.411  71.497  1.00  0.00    -0.646 OA
ENDBRANCH  72  76
ENDBRANCH  69  72
ENDBRANCH  56  68
ENDBRANCH  53  56
ENDBRANCH  47  52
ENDBRANCH  45  47
ENDBRANCH   1  43
TORSDOF 30
ENDMDL
