MODEL 1
REMARK VINA RESULT:      -5.6      0.000      0.000
REMARK WARNING: 32 MAX_TORS EXCEEDED!!!
REMARK  33 active torsions:
REMARK  status: ('A' for Active; 'I' for Inactive)
REMARK    1  A    between atoms: N_1  and  CA_2 
REMARK    2  A    between atoms: CA_2  and  CB_5 
REMARK    3  A    between atoms: CA_2  and  C_3 
REMARK       I    between atoms: C_3  and  N_14 
REMARK    4  A    between atoms: CB_5  and  CG_6 
REMARK    5  A    between atoms: CG_6  and  CD_7 
REMARK    6  A    between atoms: CD_7  and  CE_8 
REMARK    7  A    between atoms: CE_8  and  NZ_9 
REMARK    8  A    between atoms: N_14  and  CA_15 
REMARK    9  A    between atoms: CA_15  and  CB_18 
REMARK   10  A    between atoms: CA_15  and  C_16 
REMARK       I    between atoms: C_16  and  N_22 
REMARK   11  A    between atoms: CB_18  and  SG_19 
REMARK   12  A    between atoms: N_22  and  CA_23 
REMARK   13  A    between atoms: CA_23  and  CB_26 
REMARK   14  A    between atoms: CA_23  and  C_24 
REMARK       I    between atoms: C_24  and  N_34 
REMARK   15  A    between atoms: CB_26  and  CG_27 
REMARK   16  A    between atoms: N_34  and  CA_35 
REMARK   17  A    between atoms: CA_35  and  CB_38 
REMARK   18  A    between atoms: CA_35  and  C_36 
REMARK       I    between atoms: C_36  and  N_53 
REMARK   19  A    between atoms: CB_38  and  CG_39 
REMARK   20  A    between atoms: CG_39  and  CD_40 
REMARK   21  A    between atoms: CD_40  and  CE_41 
REMARK   22  A    between atoms: CE_41  and  NZ_42 
REMARK   23  A    between atoms: CA_47  and  N_53 
REMARK   24  A    between atoms: CA_47  and  CB_49 
REMARK   25  A    between atoms: CA_47  and  C_48 
REMARK       I    between atoms: C_48  and  N_69 
REMARK   26  A    between atoms: CB_49  and  OG1_55 
REMARK   27  A    between atoms: CA_56  and  CB_58 
REMARK   28  A    between atoms: CA_56  and  N_69 
REMARK   29  A    between atoms: CA_56  and  C_57 
REMARK       I    between atoms: C_57  and  N_78 
REMARK   30  A    between atoms: CB_58  and  CG_59 
REMARK   31  A    between atoms: CA_72  and  N_78 
REMARK   32  A    between atoms: CA_72  and  CB_74 
REMARK   33  A    between atoms: CA_72  and  C_73 
ROOT
ATOM      1  CA  LYS B   4       3.507  91.451  65.774  1.00  0.00     0.176 C 
ENDROOT
BRANCH   1   2
ATOM      2  N   LYS B   4       4.148  90.632  66.797  1.00  0.00    -0.346 N 
ATOM      3  C   PHE B   3       4.698  89.449  66.508  1.00  0.00     0.241 C 
ATOM      4  O   PHE B   3       4.688  88.993  65.353  1.00  0.00    -0.271 OA
ATOM      5  H   LYS B   4       4.177  90.958  67.721  1.00  0.00     0.163 HD
BRANCH   3   6
ATOM      6  CA  PHE B   3       5.366  88.685  67.626  1.00  0.00     0.180 C 
BRANCH   6   7
ATOM      7  N   PHE B   3       4.698  87.409  67.859  1.00  0.00    -0.346 N 
ATOM      8  H   PHE B   3       5.017  86.610  67.394  1.00  0.00     0.163 HD
ATOM      9  C   CYS B   2       3.652  87.304  68.700  1.00  0.00     0.241 C 
ATOM     10  O   CYS B   2       3.207  88.267  69.318  1.00  0.00    -0.271 OA
BRANCH   9  11
ATOM     11  CA  CYS B   2       3.030  85.932  68.811  1.00  0.00     0.185 C 
BRANCH  11  12
ATOM     12  CB  CYS B   2       3.937  84.932  69.553  1.00  0.00     0.105 C 
BRANCH  12  13
ATOM     13  SG  CYS B   2       3.126  84.321  71.049  1.00  0.00    -0.180 SA
ATOM     14  HG  CYS B   2       1.880  84.616  70.686  1.00  0.00     0.101 HD
ENDBRANCH  12  13
ENDBRANCH  11  12
BRANCH  11  15
ATOM     15  N   CYS B   2       2.724  85.389  67.490  1.00  0.00    -0.345 N 
ATOM     16  H   CYS B   2       3.438  85.330  66.817  1.00  0.00     0.163 HD
ATOM     17  C   LYS B   1       1.495  84.969  67.174  1.00  0.00     0.254 C 
ATOM     18  O   LYS B   1       0.570  84.969  67.994  1.00  0.00    -0.271 OA
BRANCH  17  19
ATOM     19  CA  LYS B   1       1.308  84.447  65.769  1.00  0.00     0.350 C 
BRANCH  19  20
ATOM     20  N   LYS B   1       2.013  85.283  64.802  1.00  0.00     0.312 N 
ATOM     21  H   LYS B   1       1.611  86.272  64.824  1.00  0.00     0.359 HD
ENDBRANCH  19  20
BRANCH  19  22
ATOM     22  CB  LYS B   1       1.811  82.982  65.650  1.00  0.00     0.048 C 
BRANCH  22  23
ATOM     23  CG  LYS B   1       2.719  82.741  64.418  1.00  0.00     0.004 C 
BRANCH  23  24
ATOM     24  CD  LYS B   1       1.984  82.274  63.158  1.00  0.00     0.027 C 
BRANCH  24  25
ATOM     25  CE  LYS B   1       1.434  80.860  63.388  1.00  0.00     0.229 C 
BRANCH  25  26
ATOM     26  NZ  LYS B   1       2.138  79.912  62.508  1.00  0.00    -0.079 N 
ATOM     27  HZ3 LYS B   1       2.725  79.349  63.107  1.00  0.00     0.274 HD
ATOM     28  HZ2 LYS B   1       2.700  80.402  61.804  1.00  0.00     0.274 HD
ATOM     29  HZ1 LYS B   1       1.468  79.334  61.986  1.00  0.00     0.274 HD
ENDBRANCH  25  26
ENDBRANCH  24  25
ENDBRANCH  23  24
ENDBRANCH  22  23
ENDBRANCH  19  22
ENDBRANCH  17  19
ENDBRANCH  11  15
ENDBRANCH   9  11
ENDBRANCH   6   7
BRANCH   6  30
ATOM     30  CB  PHE B   3       6.859  88.446  67.248  1.00  0.00     0.073 C 
BRANCH  30  31
ATOM     31  CG  PHE B   3       7.888  88.625  68.376  1.00  0.00    -0.056 A 
ATOM     32  CD2 PHE B   3       7.937  89.806  69.120  1.00  0.00     0.007 A 
ATOM     33  CE2 PHE B   3       8.827  89.926  70.185  1.00  0.00     0.001 A 
ATOM     34  CZ  PHE B   3       9.667  88.863  70.513  1.00  0.00     0.000 A 
ATOM     35  CE1 PHE B   3       9.624  87.683  69.775  1.00  0.00     0.001 A 
ATOM     36  CD1 PHE B   3       8.744  87.567  68.705  1.00  0.00     0.007 A 
ENDBRANCH  30  31
ENDBRANCH   6  30
ENDBRANCH   3   6
ENDBRANCH   1   2
BRANCH   1  37
ATOM     37  CB  LYS B   4       2.380  92.301  66.422  1.00  0.00     0.035 C 
BRANCH  37  38
ATOM     38  CG  LYS B   4       1.403  91.469  67.290  1.00  0.00     0.004 C 
BRANCH  38  39
ATOM     39  CD  LYS B   4       0.474  90.540  66.504  1.00  0.00     0.027 C 
BRANCH  39  40
ATOM     40  CE  LYS B   4       0.804  89.082  66.853  1.00  0.00     0.229 C 
BRANCH  40  41
ATOM     41  NZ  LYS B   4       1.475  88.444  65.707  1.00  0.00    -0.079 N 
ATOM     42  HZ3 LYS B   4       0.783  87.864  65.258  1.00  0.00     0.274 HD
ATOM     43  HZ2 LYS B   4       2.280  87.885  66.010  1.00  0.00     0.274 HD
ATOM     44  HZ1 LYS B   4       1.847  89.154  65.065  1.00  0.00     0.274 HD
ENDBRANCH  40  41
ENDBRANCH  39  40
ENDBRANCH  38  39
ENDBRANCH  37  38
ENDBRANCH   1  37
BRANCH   1  45
ATOM     45  C   LYS B   4       4.514  92.334  65.075  1.00  0.00     0.241 C 
ATOM     46  O   LYS B   4       4.679  93.505  65.425  1.00  0.00    -0.271 OA
ATOM     47  N   THR B   5       5.167  91.785  64.056  1.00  7.70    -0.344 N 
ATOM     48  H   THR B   5       4.981  90.852  63.821  1.00  0.23     0.163 HD
BRANCH  47  49
ATOM     49  CA  THR B   5       6.161  92.526  63.285  1.00  7.88     0.205 C 
BRANCH  49  50
ATOM     50  CB  THR B   5       7.538  92.405  63.938  1.00  4.05     0.146 C 
ATOM     51  CG2 THR B   5       7.639  91.250  64.911  1.00  3.72     0.042 C 
BRANCH  50  52
ATOM     52  OG1 THR B   5       8.545  92.228  62.957  1.00  7.31    -0.393 OA
ATOM     53  HG1 THR B   5       8.876  91.329  62.997  1.00  0.23     0.210 HD
ENDBRANCH  50  52
ENDBRANCH  49  50
BRANCH  49  54
ATOM     54  C   THR B   5       6.219  92.013  61.850  1.00  7.05     0.243 C 
ATOM     55  O   THR B   5       6.558  92.755  60.928  1.00  6.06    -0.271 OA
ATOM     56  N   TRP B   6       5.890  90.739  61.667  1.00  0.00    -0.346 N 
ATOM     57  H   TRP B   6       5.629  90.196  62.440  1.00  0.23     0.163 HD
BRANCH  56  58
ATOM     58  CA  TRP B   6       5.909  90.127  60.344  1.00  0.00     0.181 C 
BRANCH  58  59
ATOM     59  CB  TRP B   6       7.118  89.201  60.209  1.00  0.00     0.075 C 
BRANCH  59  60
ATOM     60  CG  TRP B   6       7.087  88.379  58.956  1.00  0.00    -0.028 A 
ATOM     61  CD2 TRP B   6       7.113  86.949  58.869  1.00  0.00    -0.002 A 
ATOM     62  CE3 TRP B   6       7.176  85.921  59.814  1.00  0.00     0.014 A 
ATOM     63  CE2 TRP B   6       7.060  86.614  57.503  1.00  0.00     0.042 A 
ATOM     64  CZ3 TRP B   6       7.184  84.610  59.371  1.00  0.00     0.001 A 
ATOM     65  CH2 TRP B   6       7.130  84.307  58.005  1.00  0.00     0.002 A 
ATOM     66  CZ2 TRP B   6       7.067  85.294  57.060  1.00  0.00     0.030 A 
ATOM     67  NE1 TRP B   6       7.005  87.786  56.793  1.00  0.00    -0.365 N 
ATOM     68  HE1 TRP B   6       6.960  87.859  55.816  1.00  0.23     0.165 HD
ATOM     69  CD1 TRP B   6       7.022  88.840  57.674  1.00  0.00     0.096 A 
ENDBRANCH  59  60
ENDBRANCH  58  59
BRANCH  58  70
ATOM     70  C   TRP B   6       4.621  89.353  60.082  1.00  0.00     0.241 C 
ATOM     71  N   VAL B   7       4.339  88.381  60.944  1.00  6.11    -0.344 N 
ATOM     72  H   VAL B   7       4.951  88.210  61.689  1.00  0.23     0.163 HD
ATOM     73  O   TRP B   6       3.904  89.629  59.120  1.00  0.00    -0.271 OA
BRANCH  71  74
ATOM     74  CA  VAL B   7       3.141  87.562  60.808  1.00  5.65     0.189 C 
BRANCH  74  75
ATOM     75  CB  VAL B   7       3.500  86.101  60.472  1.00  1.15     0.010 C 
ATOM     76  CG1 VAL B   7       4.108  85.409  61.683  1.00  4.96     0.012 C 
ATOM     77  CG2 VAL B   7       2.275  85.347  59.978  1.00  9.83     0.012 C 
ENDBRANCH  74  75
BRANCH  74  78
ATOM     78  C   VAL B   7       2.307  87.589  62.086  1.00  4.44     0.197 C 
ATOM     79  O   VAL B   7       1.063  87.624  61.977  1.00  0.00    -0.646 OA
ATOM     80  OXT VAL B   7       2.903  87.577  63.182  1.00  0.00    -0.646 OA
ENDBRANCH  74  78
ENDBRANCH  71  74
ENDBRANCH  58  70
ENDBRANCH  56  58
ENDBRANCH  49  54
ENDBRANCH  47  49
ENDBRANCH   1  45
TORSDOF 33
ENDMDL
MODEL 2
REMARK VINA RESULT:      -5.6      2.121      3.079
REMARK WARNING: 32 MAX_TORS EXCEEDED!!!
REMARK  33 active torsions:
REMARK  status: ('A' for Active; 'I' for Inactive)
REMARK    1  A    between atoms: N_1  and  CA_2 
REMARK    2  A    between atoms: CA_2  and  CB_5 
REMARK    3  A    between atoms: CA_2  and  C_3 
REMARK       I    between atoms: C_3  and  N_14 
REMARK    4  A    between atoms: CB_5  and  CG_6 
REMARK    5  A    between atoms: CG_6  and  CD_7 
REMARK    6  A    between atoms: CD_7  and  CE_8 
REMARK    7  A    between atoms: CE_8  and  NZ_9 
REMARK    8  A    between atoms: N_14  and  CA_15 
REMARK    9  A    between atoms: CA_15  and  CB_18 
REMARK   10  A    between atoms: CA_15  and  C_16 
REMARK       I    between atoms: C_16  and  N_22 
REMARK   11  A    between atoms: CB_18  and  SG_19 
REMARK   12  A    between atoms: N_22  and  CA_23 
REMARK   13  A    between atoms: CA_23  and  CB_26 
REMARK   14  A    between atoms: CA_23  and  C_24 
REMARK       I    between atoms: C_24  and  N_34 
REMARK   15  A    between atoms: CB_26  and  CG_27 
REMARK   16  A    between atoms: N_34  and  CA_35 
REMARK   17  A    between atoms: CA_35  and  CB_38 
REMARK   18  A    between atoms: CA_35  and  C_36 
REMARK       I    between atoms: C_36  and  N_53 
REMARK   19  A    between atoms: CB_38  and  CG_39 
REMARK   20  A    between atoms: CG_39  and  CD_40 
REMARK   21  A    between atoms: CD_40  and  CE_41 
REMARK   22  A    between atoms: CE_41  and  NZ_42 
REMARK   23  A    between atoms: CA_47  and  N_53 
REMARK   24  A    between atoms: CA_47  and  CB_49 
REMARK   25  A    between atoms: CA_47  and  C_48 
REMARK       I    between atoms: C_48  and  N_69 
REMARK   26  A    between atoms: CB_49  and  OG1_55 
REMARK   27  A    between atoms: CA_56  and  CB_58 
REMARK   28  A    between atoms: CA_56  and  N_69 
REMARK   29  A    between atoms: CA_56  and  C_57 
REMARK       I    between atoms: C_57  and  N_78 
REMARK   30  A    between atoms: CB_58  and  CG_59 
REMARK   31  A    between atoms: CA_72  and  N_78 
REMARK   32  A    between atoms: CA_72  and  CB_74 
REMARK   33  A    between atoms: CA_72  and  C_73 
ROOT
ATOM      1  CA  LYS B   4       3.246  91.226  66.112  1.00  0.00     0.176 C 
ENDROOT
BRANCH   1   2
ATOM      2  N   LYS B   4       3.813  90.486  67.235  1.00  0.00    -0.346 N 
ATOM      3  C   PHE B   3       4.123  89.191  67.138  1.00  0.00     0.241 C 
ATOM      4  O   PHE B   3       3.945  88.556  66.086  1.00  0.00    -0.271 OA
ATOM      5  H   LYS B   4       3.970  90.952  68.084  1.00  0.00     0.163 HD
BRANCH   3   6
ATOM      6  CA  PHE B   3       4.733  88.515  68.343  1.00  0.00     0.180 C 
BRANCH   6   7
ATOM      7  N   PHE B   3       4.072  87.244  68.620  1.00  0.00    -0.346 N 
ATOM      8  H   PHE B   3       3.867  86.640  67.879  1.00  0.00     0.163 HD
ATOM      9  C   CYS B   2       3.738  86.882  69.873  1.00  0.00     0.241 C 
ATOM     10  O   CYS B   2       3.973  87.591  70.847  1.00  0.00    -0.271 OA
BRANCH   9  11
ATOM     11  CA  CYS B   2       3.018  85.560  70.007  1.00  0.00     0.185 C 
BRANCH  11  12
ATOM     12  CB  CYS B   2       1.791  85.650  70.936  1.00  0.00     0.105 C 
BRANCH  12  13
ATOM     13  SG  CYS B   2       0.498  86.670  70.191  1.00  0.00    -0.180 SA
ATOM     14  HG  CYS B   2       1.185  87.809  70.173  1.00  0.00     0.101 HD
ENDBRANCH  12  13
ENDBRANCH  11  12
BRANCH  11  15
ATOM     15  N   CYS B   2       3.913  84.527  70.520  1.00  0.00    -0.345 N 
ATOM     16  H   CYS B   2       4.439  84.706  71.331  1.00  0.00     0.163 HD
ATOM     17  C   LYS B   1       4.035  83.343  69.912  1.00  0.00     0.254 C 
ATOM     18  O   LYS B   1       3.362  83.041  68.921  1.00  0.00    -0.271 OA
BRANCH  17  19
ATOM     19  CA  LYS B   1       5.010  82.370  70.534  1.00  0.00     0.350 C 
BRANCH  19  20
ATOM     20  N   LYS B   1       4.397  81.056  70.709  1.00  0.00     0.312 N 
ATOM     21  H   LYS B   1       4.906  80.341  70.102  1.00  0.00     0.359 HD
ENDBRANCH  19  20
BRANCH  19  22
ATOM     22  CB  LYS B   1       6.289  82.233  69.664  1.00  0.00     0.048 C 
BRANCH  22  23
ATOM     23  CG  LYS B   1       7.569  82.753  70.365  1.00  0.00     0.004 C 
BRANCH  23  24
ATOM     24  CD  LYS B   1       7.616  84.268  70.578  1.00  0.00     0.027 C 
BRANCH  24  25
ATOM     25  CE  LYS B   1       7.305  84.976  69.252  1.00  0.00     0.229 C 
BRANCH  25  26
ATOM     26  NZ  LYS B   1       8.544  85.107  68.465  1.00  0.00    -0.079 N 
ATOM     27  HZ3 LYS B   1       9.171  84.389  68.800  1.00  0.00     0.274 HD
ATOM     28  HZ2 LYS B   1       8.961  86.037  68.577  1.00  0.00     0.274 HD
ATOM     29  HZ1 LYS B   1       8.349  85.000  67.463  1.00  0.00     0.274 HD
ENDBRANCH  25  26
ENDBRANCH  24  25
ENDBRANCH  23  24
ENDBRANCH  22  23
ENDBRANCH  19  22
ENDBRANCH  17  19
ENDBRANCH  11  15
ENDBRANCH   9  11
ENDBRANCH   6   7
BRANCH   6  30
ATOM     30  CB  PHE B   3       6.250  88.281  68.074  1.00  0.00     0.073 C 
BRANCH  30  31
ATOM     31  CG  PHE B   3       7.232  89.090  68.938  1.00  0.00    -0.056 A 
ATOM     32  CD2 PHE B   3       8.249  89.844  68.349  1.00  0.00     0.007 A 
ATOM     33  CE2 PHE B   3       9.086  90.627  69.140  1.00  0.00     0.001 A 
ATOM     34  CZ  PHE B   3       8.906  90.663  70.521  1.00  0.00     0.000 A 
ATOM     35  CE1 PHE B   3       7.894  89.913  71.115  1.00  0.00     0.001 A 
ATOM     36  CD1 PHE B   3       7.065  89.122  70.327  1.00  0.00     0.007 A 
ENDBRANCH  30  31
ENDBRANCH   6  30
ENDBRANCH   3   6
ENDBRANCH   1   2
BRANCH   1  37
ATOM     37  CB  LYS B   4       2.059  92.094  66.610  1.00  0.00     0.035 C 
BRANCH  37  38
ATOM     38  CG  LYS B   4       0.695  91.361  66.560  1.00  0.00     0.004 C 
BRANCH  38  39
ATOM     39  CD  LYS B   4       0.628  90.191  65.575  1.00  0.00     0.027 C 
BRANCH  39  40
ATOM     40  CE  LYS B   4       0.363  88.893  66.350  1.00  0.00     0.229 C 
BRANCH  40  41
ATOM     41  NZ  LYS B   4       1.021  87.768  65.661  1.00  0.00    -0.079 N 
ATOM     42  HZ3 LYS B   4       0.366  87.436  64.969  1.00  0.00     0.274 HD
ATOM     43  HZ2 LYS B   4       1.268  87.021  66.318  1.00  0.00     0.274 HD
ATOM     44  HZ1 LYS B   4       1.903  88.073  65.231  1.00  0.00     0.274 HD
ENDBRANCH  40  41
ENDBRANCH  39  40
ENDBRANCH  38  39
ENDBRANCH  37  38
ENDBRANCH   1  37
BRANCH   1  45
ATOM     45  C   LYS B   4       4.296  92.080  65.441  1.00  0.00     0.241 C 
ATOM     46  O   LYS B   4       4.286  93.307  65.565  1.00  0.00    -0.271 OA
ATOM     47  N   THR B   5       5.186  91.436  64.693  1.00  7.70    -0.344 N 
ATOM     48  H   THR B   5       5.130  90.460  64.626  1.00  0.23     0.163 HD
BRANCH  47  49
ATOM     49  CA  THR B   5       6.248  92.137  63.978  1.00  7.88     0.205 C 
BRANCH  49  50
ATOM     50  CB  THR B   5       7.606  91.831  64.613  1.00  4.05     0.146 C 
ATOM     51  CG2 THR B   5       7.869  92.626  65.873  1.00  3.72     0.042 C 
BRANCH  50  52
ATOM     52  OG1 THR B   5       7.706  90.457  64.943  1.00  7.31    -0.393 OA
ATOM     53  HG1 THR B   5       6.991  89.974  64.523  1.00  0.23     0.210 HD
ENDBRANCH  50  52
ENDBRANCH  49  50
BRANCH  49  54
ATOM     54  C   THR B   5       6.260  91.738  62.506  1.00  7.05     0.243 C 
ATOM     55  O   THR B   5       6.473  92.575  61.629  1.00  6.06    -0.271 OA
ATOM     56  N   TRP B   6       6.034  90.456  62.243  1.00  0.00    -0.346 N 
ATOM     57  H   TRP B   6       5.872  89.836  62.984  1.00  0.23     0.163 HD
BRANCH  56  58
ATOM     58  CA  TRP B   6       6.023  89.948  60.877  1.00  0.00     0.181 C 
BRANCH  58  59
ATOM     59  CB  TRP B   6       7.069  88.844  60.716  1.00  0.00     0.075 C 
BRANCH  59  60
ATOM     60  CG  TRP B   6       7.048  88.212  59.358  1.00  0.00    -0.028 A 
ATOM     61  CD2 TRP B   6       7.104  86.811  59.064  1.00  0.00    -0.002 A 
ATOM     62  CE3 TRP B   6       7.197  85.659  59.849  1.00  0.00     0.014 A 
ATOM     63  CE2 TRP B   6       7.050  86.677  57.664  1.00  0.00     0.042 A 
ATOM     64  CZ3 TRP B   6       7.230  84.426  59.221  1.00  0.00     0.001 A 
ATOM     65  CH2 TRP B   6       7.175  84.323  57.826  1.00  0.00     0.002 A 
ATOM     66  CZ2 TRP B   6       7.084  85.436  57.034  1.00  0.00     0.030 A 
ATOM     67  NE1 TRP B   6       6.964  87.937  57.132  1.00  0.00    -0.365 N 
ATOM     68  HE1 TRP B   6       6.912  88.151  56.176  1.00  0.23     0.165 HD
ATOM     69  CD1 TRP B   6       6.964  88.853  58.156  1.00  0.00     0.096 A 
ENDBRANCH  59  60
ENDBRANCH  58  59
BRANCH  58  70
ATOM     70  C   TRP B   6       4.641  89.421  60.502  1.00  0.00     0.241 C 
ATOM     71  N   VAL B   7       4.245  88.320  61.133  1.00  6.11    -0.344 N 
ATOM     72  H   VAL B   7       4.840  87.908  61.792  1.00  0.23     0.163 HD
ATOM     73  O   TRP B   6       3.954  89.998  59.659  1.00  0.00    -0.271 OA
BRANCH  71  74
ATOM     74  CA  VAL B   7       2.948  87.710  60.866  1.00  5.65     0.189 C 
BRANCH  74  75
ATOM     75  CB  VAL B   7       3.098  86.220  60.502  1.00  1.15     0.010 C 
ATOM     76  CG1 VAL B   7       3.555  86.066  59.059  1.00  4.96     0.012 C 
ATOM     77  CG2 VAL B   7       4.066  85.529  61.451  1.00  9.83     0.012 C 
ENDBRANCH  74  75
BRANCH  74  78
ATOM     78  C   VAL B   7       2.021  87.839  62.071  1.00  4.44     0.197 C 
ATOM     79  O   VAL B   7       0.827  87.499  61.935  1.00  0.00    -0.646 OA
ATOM     80  OXT VAL B   7       2.495  88.278  63.139  1.00  0.00    -0.646 OA
ENDBRANCH  74  78
ENDBRANCH  71  74
ENDBRANCH  58  70
ENDBRANCH  56  58
ENDBRANCH  49  54
ENDBRANCH  47  49
ENDBRANCH   1  45
TORSDOF 33
ENDMDL
MODEL 3
REMARK VINA RESULT:      -5.5      2.427      4.806
REMARK WARNING: 32 MAX_TORS EXCEEDED!!!
REMARK  33 active torsions:
REMARK  status: ('A' for Active; 'I' for Inactive)
REMARK    1  A    between atoms: N_1  and  CA_2 
REMARK    2  A    between atoms: CA_2  and  CB_5 
REMARK    3  A    between atoms: CA_2  and  C_3 
REMARK       I    between atoms: C_3  and  N_14 
REMARK    4  A    between atoms: CB_5  and  CG_6 
REMARK    5  A    between atoms: CG_6  and  CD_7 
REMARK    6  A    between atoms: CD_7  and  CE_8 
REMARK    7  A    between atoms: CE_8  and  NZ_9 
REMARK    8  A    between atoms: N_14  and  CA_15 
REMARK    9  A    between atoms: CA_15  and  CB_18 
REMARK   10  A    between atoms: CA_15  and  C_16 
REMARK       I    between atoms: C_16  and  N_22 
REMARK   11  A    between atoms: CB_18  and  SG_19 
REMARK   12  A    between atoms: N_22  and  CA_23 
REMARK   13  A    between atoms: CA_23  and  CB_26 
REMARK   14  A    between atoms: CA_23  and  C_24 
REMARK       I    between atoms: C_24  and  N_34 
REMARK   15  A    between atoms: CB_26  and  CG_27 
REMARK   16  A    between atoms: N_34  and  CA_35 
REMARK   17  A    between atoms: CA_35  and  CB_38 
REMARK   18  A    between atoms: CA_35  and  C_36 
REMARK       I    between atoms: C_36  and  N_53 
REMARK   19  A    between atoms: CB_38  and  CG_39 
REMARK   20  A    between atoms: CG_39  and  CD_40 
REMARK   21  A    between atoms: CD_40  and  CE_41 
REMARK   22  A    between atoms: CE_41  and  NZ_42 
REMARK   23  A    between atoms: CA_47  and  N_53 
REMARK   24  A    between atoms: CA_47  and  CB_49 
REMARK   25  A    between atoms: CA_47  and  C_48 
REMARK       I    between atoms: C_48  and  N_69 
REMARK   26  A    between atoms: CB_49  and  OG1_55 
REMARK   27  A    between atoms: CA_56  and  CB_58 
REMARK   28  A    between atoms: CA_56  and  N_69 
REMARK   29  A    between atoms: CA_56  and  C_57 
REMARK       I    between atoms: C_57  and  N_78 
REMARK   30  A    between atoms: CB_58  and  CG_59 
REMARK   31  A    between atoms: CA_72  and  N_78 
REMARK   32  A    between atoms: CA_72  and  CB_74 
REMARK   33  A    between atoms: CA_72  and  C_73 
ROOT
ATOM      1  CA  LYS B   4       2.581  90.536  65.984  1.00  0.00     0.176 C 
ENDROOT
BRANCH   1   2
ATOM      2  N   LYS B   4       3.145  89.739  67.069  1.00  0.00    -0.346 N 
ATOM      3  C   PHE B   3       4.150  88.883  66.863  1.00  0.00     0.241 C 
ATOM      4  O   PHE B   3       4.651  88.726  65.738  1.00  0.00    -0.271 OA
ATOM      5  H   LYS B   4       2.778  89.835  67.973  1.00  0.00     0.163 HD
BRANCH   3   6
ATOM      6  CA  PHE B   3       4.690  88.124  68.052  1.00  0.00     0.180 C 
BRANCH   6   7
ATOM      7  N   PHE B   3       3.970  86.869  68.241  1.00  0.00    -0.346 N 
ATOM      8  H   PHE B   3       4.335  86.046  67.860  1.00  0.00     0.163 HD
ATOM      9  C   CYS B   2       2.815  86.817  68.930  1.00  0.00     0.241 C 
ATOM     10  O   CYS B   2       2.307  87.812  69.438  1.00  0.00    -0.271 OA
BRANCH   9  11
ATOM     11  CA  CYS B   2       2.154  85.460  69.009  1.00  0.00     0.185 C 
BRANCH  11  12
ATOM     12  CB  CYS B   2       2.613  84.652  70.239  1.00  0.00     0.105 C 
BRANCH  12  13
ATOM     13  SG  CYS B   2       3.879  83.447  69.777  1.00  0.00    -0.180 SA
ATOM     14  HG  CYS B   2       3.748  82.663  70.844  1.00  0.00     0.101 HD
ENDBRANCH  12  13
ENDBRANCH  11  12
BRANCH  11  15
ATOM     15  N   CYS B   2       2.430  84.674  67.809  1.00  0.00    -0.345 N 
ATOM     16  H   CYS B   2       3.256  84.143  67.761  1.00  0.00     0.163 HD
ATOM     17  C   LYS B   1       1.585  84.660  66.774  1.00  0.00     0.254 C 
ATOM     18  O   LYS B   1       0.507  85.264  66.797  1.00  0.00    -0.271 OA
BRANCH  17  19
ATOM     19  CA  LYS B   1       1.997  83.821  65.587  1.00  0.00     0.350 C 
BRANCH  19  20
ATOM     20  N   LYS B   1       0.966  82.843  65.254  1.00  0.00     0.312 N 
ATOM     21  H   LYS B   1       1.300  82.231  64.446  1.00  0.00     0.359 HD
ENDBRANCH  19  20
BRANCH  19  22
ATOM     22  CB  LYS B   1       2.282  84.714  64.348  1.00  0.00     0.048 C 
BRANCH  22  23
ATOM     23  CG  LYS B   1       2.871  83.933  63.148  1.00  0.00     0.004 C 
BRANCH  23  24
ATOM     24  CD  LYS B   1       3.032  84.751  61.863  1.00  0.00     0.027 C 
BRANCH  24  25
ATOM     25  CE  LYS B   1       4.518  85.065  61.647  1.00  0.00     0.229 C 
BRANCH  25  26
ATOM     26  NZ  LYS B   1       4.743  86.511  61.821  1.00  0.00    -0.079 N 
ATOM     27  HZ3 LYS B   1       5.578  86.603  62.383  1.00  0.00     0.274 HD
ATOM     28  HZ2 LYS B   1       3.944  86.961  62.280  1.00  0.00     0.274 HD
ATOM     29  HZ1 LYS B   1       4.848  86.974  60.911  1.00  0.00     0.274 HD
ENDBRANCH  25  26
ENDBRANCH  24  25
ENDBRANCH  23  24
ENDBRANCH  22  23
ENDBRANCH  19  22
ENDBRANCH  17  19
ENDBRANCH  11  15
ENDBRANCH   9  11
ENDBRANCH   6   7
BRANCH   6  30
ATOM     30  CB  PHE B   3       6.205  87.842  67.821  1.00  0.00     0.073 C 
BRANCH  30  31
ATOM     31  CG  PHE B   3       7.192  88.816  68.485  1.00  0.00    -0.056 A 
ATOM     32  CD2 PHE B   3       6.932  89.345  69.751  1.00  0.00     0.007 A 
ATOM     33  CE2 PHE B   3       7.867  90.171  70.370  1.00  0.00     0.001 A 
ATOM     34  CZ  PHE B   3       9.069  90.465  69.728  1.00  0.00     0.000 A 
ATOM     35  CE1 PHE B   3       9.334  89.941  68.465  1.00  0.00     0.001 A 
ATOM     36  CD1 PHE B   3       8.396  89.126  67.842  1.00  0.00     0.007 A 
ENDBRANCH  30  31
ENDBRANCH   6  30
ENDBRANCH   3   6
ENDBRANCH   1   2
BRANCH   1  37
ATOM     37  CB  LYS B   4       1.100  90.873  66.306  1.00  0.00     0.035 C 
BRANCH  37  38
ATOM     38  CG  LYS B   4       0.749  90.735  67.809  1.00  0.00     0.004 C 
BRANCH  38  39
ATOM     39  CD  LYS B   4       0.745  92.049  68.594  1.00  0.00     0.027 C 
BRANCH  39  40
ATOM     40  CE  LYS B   4       1.094  91.763  70.061  1.00  0.00     0.229 C 
BRANCH  40  41
ATOM     41  NZ  LYS B   4       2.204  90.795  70.120  1.00  0.00    -0.079 N 
ATOM     42  HZ3 LYS B   4       2.934  91.232  70.662  1.00  0.00     0.274 HD
ATOM     43  HZ2 LYS B   4       2.539  90.554  69.181  1.00  0.00     0.274 HD
ATOM     44  HZ1 LYS B   4       1.892  89.913  70.546  1.00  0.00     0.274 HD
ENDBRANCH  40  41
ENDBRANCH  39  40
ENDBRANCH  38  39
ENDBRANCH  37  38
ENDBRANCH   1  37
BRANCH   1  45
ATOM     45  C   LYS B   4       3.386  91.794  65.760  1.00  0.00     0.241 C 
ATOM     46  O   LYS B   4       2.902  92.904  65.996  1.00  0.00    -0.271 OA
ATOM     47  N   THR B   5       4.608  91.628  65.266  1.00  7.70    -0.344 N 
ATOM     48  H   THR B   5       4.929  90.719  65.089  1.00  0.23     0.163 HD
BRANCH  47  49
ATOM     49  CA  THR B   5       5.491  92.758  64.990  1.00  7.88     0.205 C 
BRANCH  49  50
ATOM     50  CB  THR B   5       6.294  93.122  66.240  1.00  4.05     0.146 C 
ATOM     51  CG2 THR B   5       6.370  91.997  67.249  1.00  3.72     0.042 C 
BRANCH  50  52
ATOM     52  OG1 THR B   5       7.620  93.481  65.896  1.00  7.31    -0.393 OA
ATOM     53  HG1 THR B   5       8.198  92.725  66.020  1.00  0.23     0.210 HD
ENDBRANCH  50  52
ENDBRANCH  49  50
BRANCH  49  54
ATOM     54  C   THR B   5       6.438  92.431  63.840  1.00  7.05     0.243 C 
ATOM     55  O   THR B   5       6.634  93.242  62.935  1.00  6.06    -0.271 OA
ATOM     56  N   TRP B   6       7.026  91.240  63.882  1.00  0.00    -0.346 N 
ATOM     57  H   TRP B   6       6.832  90.637  64.630  1.00  0.23     0.163 HD
BRANCH  56  58
ATOM     58  CA  TRP B   6       7.956  90.810  62.846  1.00  0.00     0.181 C 
BRANCH  58  59
ATOM     59  CB  TRP B   6       9.240  90.272  63.479  1.00  0.00     0.075 C 
BRANCH  59  60
ATOM     60  CG  TRP B   6      10.153  91.358  63.960  1.00  0.00    -0.028 A 
ATOM     61  CD2 TRP B   6      11.201  91.229  64.928  1.00  0.00    -0.002 A 
ATOM     62  CE3 TRP B   6      11.690  90.166  65.692  1.00  0.00     0.014 A 
ATOM     63  CE2 TRP B   6      11.799  92.496  65.066  1.00  0.00     0.042 A 
ATOM     64  CZ3 TRP B   6      12.747  90.397  66.555  1.00  0.00     0.001 A 
ATOM     65  CH2 TRP B   6      13.322  91.668  66.671  1.00  0.00     0.002 A 
ATOM     66  CZ2 TRP B   6      12.862  92.726  65.935  1.00  0.00     0.030 A 
ATOM     67  NE1 TRP B   6      11.145  93.355  64.221  1.00  0.00    -0.365 N 
ATOM     68  HE1 TRP B   6      11.348  94.307  64.106  1.00  0.23     0.165 HD
ATOM     69  CD1 TRP B   6      10.158  92.663  63.561  1.00  0.00     0.096 A 
ENDBRANCH  59  60
ENDBRANCH  58  59
BRANCH  58  70
ATOM     70  C   TRP B   6       7.323  89.747  61.954  1.00  0.00     0.241 C 
ATOM     71  N   VAL B   7       6.952  90.146  60.741  1.00  6.11    -0.344 N 
ATOM     72  H   VAL B   7       7.098  91.079  60.481  1.00  0.23     0.163 HD
ATOM     73  O   TRP B   6       7.173  88.593  62.357  1.00  0.00    -0.271 OA
BRANCH  71  74
ATOM     74  CA  VAL B   7       6.333  89.232  59.790  1.00  5.65     0.189 C 
BRANCH  74  75
ATOM     75  CB  VAL B   7       5.080  89.860  59.149  1.00  1.15     0.010 C 
ATOM     76  CG1 VAL B   7       3.881  88.934  59.299  1.00  4.96     0.012 C 
ATOM     77  CG2 VAL B   7       4.788  91.222  59.760  1.00  9.83     0.012 C 
ENDBRANCH  74  75
BRANCH  74  78
ATOM     78  C   VAL B   7       7.312  88.836  58.689  1.00  4.44     0.197 C 
ATOM     79  O   VAL B   7       8.468  88.501  59.021  1.00  0.00    -0.646 OA
ATOM     80  OXT VAL B   7       6.915  88.867  57.506  1.00  0.00    -0.646 OA
ENDBRANCH  74  78
ENDBRANCH  71  74
ENDBRANCH  58  70
ENDBRANCH  56  58
ENDBRANCH  49  54
ENDBRANCH  47  49
ENDBRANCH   1  45
TORSDOF 33
ENDMDL
MODEL 4
REMARK VINA RESULT:      -5.2      2.412      4.324
REMARK WARNING: 32 MAX_TORS EXCEEDED!!!
REMARK  33 active torsions:
REMARK  status: ('A' for Active; 'I' for Inactive)
REMARK    1  A    between atoms: N_1  and  CA_2 
REMARK    2  A    between atoms: CA_2  and  CB_5 
REMARK    3  A    between atoms: CA_2  and  C_3 
REMARK       I    between atoms: C_3  and  N_14 
REMARK    4  A    between atoms: CB_5  and  CG_6 
REMARK    5  A    between atoms: CG_6  and  CD_7 
REMARK    6  A    between atoms: CD_7  and  CE_8 
REMARK    7  A    between atoms: CE_8  and  NZ_9 
REMARK    8  A    between atoms: N_14  and  CA_15 
REMARK    9  A    between atoms: CA_15  and  CB_18 
REMARK   10  A    between atoms: CA_15  and  C_16 
REMARK       I    between atoms: C_16  and  N_22 
REMARK   11  A    between atoms: CB_18  and  SG_19 
REMARK   12  A    between atoms: N_22  and  CA_23 
REMARK   13  A    between atoms: CA_23  and  CB_26 
REMARK   14  A    between atoms: CA_23  and  C_24 
REMARK       I    between atoms: C_24  and  N_34 
REMARK   15  A    between atoms: CB_26  and  CG_27 
REMARK   16  A    between atoms: N_34  and  CA_35 
REMARK   17  A    between atoms: CA_35  and  CB_38 
REMARK   18  A    between atoms: CA_35  and  C_36 
REMARK       I    between atoms: C_36  and  N_53 
REMARK   19  A    between atoms: CB_38  and  CG_39 
REMARK   20  A    between atoms: CG_39  and  CD_40 
REMARK   21  A    between atoms: CD_40  and  CE_41 
REMARK   22  A    between atoms: CE_41  and  NZ_42 
REMARK   23  A    between atoms: CA_47  and  N_53 
REMARK   24  A    between atoms: CA_47  and  CB_49 
REMARK   25  A    between atoms: CA_47  and  C_48 
REMARK       I    between atoms: C_48  and  N_69 
REMARK   26  A    between atoms: CB_49  and  OG1_55 
REMARK   27  A    between atoms: CA_56  and  CB_58 
REMARK   28  A    between atoms: CA_56  and  N_69 
REMARK   29  A    between atoms: CA_56  and  C_57 
REMARK       I    between atoms: C_57  and  N_78 
REMARK   30  A    between atoms: CB_58  and  CG_59 
REMARK   31  A    between atoms: CA_72  and  N_78 
REMARK   32  A    between atoms: CA_72  and  CB_74 
REMARK   33  A    between atoms: CA_72  and  C_73 
ROOT
ATOM      1  CA  LYS B   4       3.117  89.968  66.704  1.00  0.00     0.176 C 
ENDROOT
BRANCH   1   2
ATOM      2  N   LYS B   4       4.073  89.284  67.569  1.00  0.00    -0.346 N 
ATOM      3  C   PHE B   3       4.086  87.953  67.687  1.00  0.00     0.241 C 
ATOM      4  O   PHE B   3       3.285  87.237  67.065  1.00  0.00    -0.271 OA
ATOM      5  H   LYS B   4       4.724  89.814  68.076  1.00  0.00     0.163 HD
BRANCH   3   6
ATOM      6  CA  PHE B   3       5.132  87.331  68.581  1.00  0.00     0.180 C 
BRANCH   6   7
ATOM      7  N   PHE B   3       4.740  85.984  68.985  1.00  0.00    -0.346 N 
ATOM      8  H   PHE B   3       4.630  85.293  68.302  1.00  0.00     0.163 HD
ATOM      9  C   CYS B   2       4.525  85.670  70.276  1.00  0.00     0.241 C 
ATOM     10  O   CYS B   2       4.652  86.489  71.182  1.00  0.00    -0.271 OA
BRANCH   9  11
ATOM     11  CA  CYS B   2       4.080  84.251  70.544  1.00  0.00     0.185 C 
BRANCH  11  12
ATOM     12  CB  CYS B   2       5.031  83.507  71.501  1.00  0.00     0.105 C 
BRANCH  12  13
ATOM     13  SG  CYS B   2       6.629  83.208  70.712  1.00  0.00    -0.180 SA
ATOM     14  HG  CYS B   2       6.261  83.541  69.477  1.00  0.00     0.101 HD
ENDBRANCH  12  13
ENDBRANCH  11  12
BRANCH  11  15
ATOM     15  N   CYS B   2       3.984  83.490  69.302  1.00  0.00    -0.345 N 
ATOM     16  H   CYS B   2       4.718  83.538  68.650  1.00  0.00     0.163 HD
ATOM     17  C   LYS B   1       2.920  82.728  69.029  1.00  0.00     0.254 C 
ATOM     18  O   LYS B   1       1.992  82.586  69.832  1.00  0.00    -0.271 OA
BRANCH  17  19
ATOM     19  CA  LYS B   1       2.937  82.007  67.701  1.00  0.00     0.350 C 
BRANCH  19  20
ATOM     20  N   LYS B   1       2.329  80.685  67.816  1.00  0.00     0.312 N 
ATOM     21  H   LYS B   1       3.054  79.937  67.583  1.00  0.00     0.359 HD
ENDBRANCH  19  20
BRANCH  19  22
ATOM     22  CB  LYS B   1       2.189  82.828  66.615  1.00  0.00     0.048 C 
BRANCH  22  23
ATOM     23  CG  LYS B   1       2.039  82.076  65.270  1.00  0.00     0.004 C 
BRANCH  23  24
ATOM     24  CD  LYS B   1       3.306  82.033  64.411  1.00  0.00     0.027 C 
BRANCH  24  25
ATOM     25  CE  LYS B   1       3.130  82.963  63.202  1.00  0.00     0.229 C 
BRANCH  25  26
ATOM     26  NZ  LYS B   1       4.438  83.192  62.565  1.00  0.00    -0.079 N 
ATOM     27  HZ3 LYS B   1       4.412  82.706  61.680  1.00  0.00     0.274 HD
ATOM     28  HZ2 LYS B   1       5.205  82.844  63.150  1.00  0.00     0.274 HD
ATOM     29  HZ1 LYS B   1       4.609  84.197  62.439  1.00  0.00     0.274 HD
ENDBRANCH  25  26
ENDBRANCH  24  25
ENDBRANCH  23  24
ENDBRANCH  22  23
ENDBRANCH  19  22
ENDBRANCH  17  19
ENDBRANCH  11  15
ENDBRANCH   9  11
ENDBRANCH   6   7
BRANCH   6  30
ATOM     30  CB  PHE B   3       6.488  87.286  67.813  1.00  0.00     0.073 C 
BRANCH  30  31
ATOM     31  CG  PHE B   3       7.762  87.374  68.668  1.00  0.00    -0.056 A 
ATOM     32  CD2 PHE B   3       8.075  88.542  69.368  1.00  0.00     0.007 A 
ATOM     33  CE2 PHE B   3       9.195  88.583  70.194  1.00  0.00     0.001 A 
ATOM     34  CZ  PHE B   3      10.004  87.456  70.328  1.00  0.00     0.000 A 
ATOM     35  CE1 PHE B   3       9.698  86.288  69.632  1.00  0.00     0.001 A 
ATOM     36  CD1 PHE B   3       8.586  86.250  68.799  1.00  0.00     0.007 A 
ENDBRANCH  30  31
ENDBRANCH   6  30
ENDBRANCH   3   6
ENDBRANCH   1   2
BRANCH   1  37
ATOM     37  CB  LYS B   4       1.830  90.291  67.511  1.00  0.00     0.035 C 
BRANCH  37  38
ATOM     38  CG  LYS B   4       2.114  90.876  68.917  1.00  0.00     0.004 C 
BRANCH  38  39
ATOM     39  CD  LYS B   4       1.236  90.313  70.039  1.00  0.00     0.027 C 
BRANCH  39  40
ATOM     40  CE  LYS B   4       1.651  88.864  70.327  1.00  0.00     0.229 C 
BRANCH  40  41
ATOM     41  NZ  LYS B   4       2.900  88.859  71.109  1.00  0.00    -0.079 N 
ATOM     42  HZ3 LYS B   4       3.263  87.919  71.060  1.00  0.00     0.274 HD
ATOM     43  HZ2 LYS B   4       2.732  89.135  72.082  1.00  0.00     0.274 HD
ATOM     44  HZ1 LYS B   4       3.567  89.543  70.730  1.00  0.00     0.274 HD
ENDBRANCH  40  41
ENDBRANCH  39  40
ENDBRANCH  38  39
ENDBRANCH  37  38
ENDBRANCH   1  37
BRANCH   1  45
ATOM     45  C   LYS B   4       3.717  91.225  66.120  1.00  0.00     0.241 C 
ATOM     46  O   LYS B   4       3.026  92.231  65.938  1.00  0.00    -0.271 OA
ATOM     47  N   THR B   5       5.002  91.161  65.787  1.00  7.70    -0.344 N 
ATOM     48  H   THR B   5       5.493  90.327  65.947  1.00  0.23     0.163 HD
BRANCH  47  49
ATOM     49  CA  THR B   5       5.708  92.297  65.202  1.00  7.88     0.205 C 
BRANCH  49  50
ATOM     50  CB  THR B   5       6.762  92.827  66.176  1.00  4.05     0.146 C 
ATOM     51  CG2 THR B   5       7.239  91.785  67.164  1.00  3.72     0.042 C 
BRANCH  50  52
ATOM     52  OG1 THR B   5       7.896  93.305  65.475  1.00  7.31    -0.393 OA
ATOM     53  HG1 THR B   5       7.671  94.120  65.021  1.00  0.23     0.210 HD
ENDBRANCH  50  52
ENDBRANCH  49  50
BRANCH  49  54
ATOM     54  C   THR B   5       6.369  91.899  63.886  1.00  7.05     0.243 C 
ATOM     55  O   THR B   5       6.677  92.751  63.053  1.00  6.06    -0.271 OA
ATOM     56  N   TRP B   6       6.588  90.601  63.706  1.00  0.00    -0.346 N 
ATOM     57  H   TRP B   6       6.322  89.970  64.407  1.00  0.23     0.163 HD
BRANCH  56  58
ATOM     58  CA  TRP B   6       7.216  90.094  62.494  1.00  0.00     0.181 C 
BRANCH  58  59
ATOM     59  CB  TRP B   6       8.211  88.985  62.839  1.00  0.00     0.075 C 
BRANCH  59  60
ATOM     60  CG  TRP B   6       8.940  89.233  64.124  1.00  0.00    -0.028 A 
ATOM     61  CD2 TRP B   6       9.811  90.333  64.416  1.00  0.00    -0.002 A 
ATOM     62  CE3 TRP B   6      10.251  91.441  63.687  1.00  0.00     0.014 A 
ATOM     63  CE2 TRP B   6      10.265  90.165  65.738  1.00  0.00     0.042 A 
ATOM     64  CZ3 TRP B   6      11.117  92.334  64.292  1.00  0.00     0.001 A 
ATOM     65  CH2 TRP B   6      11.552  92.141  65.609  1.00  0.00     0.002 A 
ATOM     66  CZ2 TRP B   6      11.137  91.065  66.344  1.00  0.00     0.030 A 
ATOM     67  NE1 TRP B   6       9.697  89.017  66.226  1.00  0.00    -0.365 N 
ATOM     68  HE1 TRP B   6       9.834  88.650  67.125  1.00  0.23     0.165 HD
ATOM     69  CD1 TRP B   6       8.903  88.464  65.251  1.00  0.00     0.096 A 
ENDBRANCH  59  60
ENDBRANCH  58  59
BRANCH  58  70
ATOM     70  C   TRP B   6       6.170  89.575  61.513  1.00  0.00     0.241 C 
ATOM     71  N   VAL B   7       6.410  88.381  60.980  1.00  6.11    -0.344 N 
ATOM     72  H   VAL B   7       7.224  87.900  61.233  1.00  0.23     0.163 HD
ATOM     73  O   TRP B   6       5.171  90.243  61.244  1.00  0.00    -0.271 OA
BRANCH  71  74
ATOM     74  CA  VAL B   7       5.492  87.770  60.026  1.00  5.65     0.189 C 
BRANCH  74  75
ATOM     75  CB  VAL B   7       6.247  87.225  58.798  1.00  1.15     0.010 C 
ATOM     76  CG1 VAL B   7       6.947  88.355  58.056  1.00  4.96     0.012 C 
ATOM     77  CG2 VAL B   7       7.244  86.152  59.211  1.00  9.83     0.012 C 
ENDBRANCH  74  75
BRANCH  74  78
ATOM     78  C   VAL B   7       4.703  86.634  60.671  1.00  4.44     0.197 C 
ATOM     79  O   VAL B   7       5.040  86.257  61.813  1.00  0.00    -0.646 OA
ATOM     80  OXT VAL B   7       3.758  86.132  60.029  1.00  0.00    -0.646 OA
ENDBRANCH  74  78
ENDBRANCH  71  74
ENDBRANCH  58  70
ENDBRANCH  56  58
ENDBRANCH  49  54
ENDBRANCH  47  49
ENDBRANCH   1  45
TORSDOF 33
ENDMDL
MODEL 5
REMARK VINA RESULT:      -4.6      2.570      4.711
REMARK WARNING: 32 MAX_TORS EXCEEDED!!!
REMARK  33 active torsions:
REMARK  status: ('A' for Active; 'I' for Inactive)
REMARK    1  A    between atoms: N_1  and  CA_2 
REMARK    2  A    between atoms: CA_2  and  CB_5 
REMARK    3  A    between atoms: CA_2  and  C_3 
REMARK       I    between atoms: C_3  and  N_14 
REMARK    4  A    between atoms: CB_5  and  CG_6 
REMARK    5  A    between atoms: CG_6  and  CD_7 
REMARK    6  A    between atoms: CD_7  and  CE_8 
REMARK    7  A    between atoms: CE_8  and  NZ_9 
REMARK    8  A    between atoms: N_14  and  CA_15 
REMARK    9  A    between atoms: CA_15  and  CB_18 
REMARK   10  A    between atoms: CA_15  and  C_16 
REMARK       I    between atoms: C_16  and  N_22 
REMARK   11  A    between atoms: CB_18  and  SG_19 
REMARK   12  A    between atoms: N_22  and  CA_23 
REMARK   13  A    between atoms: CA_23  and  CB_26 
REMARK   14  A    between atoms: CA_23  and  C_24 
REMARK       I    between atoms: C_24  and  N_34 
REMARK   15  A    between atoms: CB_26  and  CG_27 
REMARK   16  A    between atoms: N_34  and  CA_35 
REMARK   17  A    between atoms: CA_35  and  CB_38 
REMARK   18  A    between atoms: CA_35  and  C_36 
REMARK       I    between atoms: C_36  and  N_53 
REMARK   19  A    between atoms: CB_38  and  CG_39 
REMARK   20  A    between atoms: CG_39  and  CD_40 
REMARK   21  A    between atoms: CD_40  and  CE_41 
REMARK   22  A    between atoms: CE_41  and  NZ_42 
REMARK   23  A    between atoms: CA_47  and  N_53 
REMARK   24  A    between atoms: CA_47  and  CB_49 
REMARK   25  A    between atoms: CA_47  and  C_48 
REMARK       I    between atoms: C_48  and  N_69 
REMARK   26  A    between atoms: CB_49  and  OG1_55 
REMARK   27  A    between atoms: CA_56  and  CB_58 
REMARK   28  A    between atoms: CA_56  and  N_69 
REMARK   29  A    between atoms: CA_56  and  C_57 
REMARK       I    between atoms: C_57  and  N_78 
REMARK   30  A    between atoms: CB_58  and  CG_59 
REMARK   31  A    between atoms: CA_72  and  N_78 
REMARK   32  A    between atoms: CA_72  and  CB_74 
REMARK   33  A    between atoms: CA_72  and  C_73 
ROOT
ATOM      1  CA  LYS B   4       2.845  88.997  66.634  1.00  0.00     0.176 C 
ENDROOT
BRANCH   1   2
ATOM      2  N   LYS B   4       3.863  88.600  67.602  1.00  0.00    -0.346 N 
ATOM      3  C   PHE B   3       4.015  87.328  67.980  1.00  0.00     0.241 C 
ATOM      4  O   PHE B   3       3.297  86.423  67.524  1.00  0.00    -0.271 OA
ATOM      5  H   LYS B   4       4.451  89.285  67.985  1.00  0.00     0.163 HD
BRANCH   3   6
ATOM      6  CA  PHE B   3       5.115  87.007  68.964  1.00  0.00     0.180 C 
BRANCH   6   7
ATOM      7  N   PHE B   3       5.050  85.610  69.383  1.00  0.00    -0.346 N 
ATOM      8  H   PHE B   3       4.803  84.926  68.729  1.00  0.00     0.163 HD
ATOM      9  C   CYS B   2       5.324  85.240  70.647  1.00  0.00     0.241 C 
ATOM     10  O   CYS B   2       5.646  86.048  71.514  1.00  0.00    -0.271 OA
BRANCH   9  11
ATOM     11  CA  CYS B   2       5.173  83.767  70.951  1.00  0.00     0.185 C 
BRANCH  11  12
ATOM     12  CB  CYS B   2       6.470  83.145  71.505  1.00  0.00     0.105 C 
BRANCH  12  13
ATOM     13  SG  CYS B   2       7.399  82.325  70.189  1.00  0.00    -0.180 SA
ATOM     14  HG  CYS B   2       7.748  83.428  69.530  1.00  0.00     0.101 HD
ENDBRANCH  12  13
ENDBRANCH  11  12
BRANCH  11  15
ATOM     15  N   CYS B   2       4.776  83.026  69.758  1.00  0.00    -0.345 N 
ATOM     16  H   CYS B   2       5.367  83.025  68.973  1.00  0.00     0.163 HD
ATOM     17  C   LYS B   1       3.626  82.347  69.707  1.00  0.00     0.254 C 
ATOM     18  O   LYS B   1       2.867  82.268  70.680  1.00  0.00    -0.271 OA
BRANCH  17  19
ATOM     19  CA  LYS B   1       3.324  81.638  68.407  1.00  0.00     0.350 C 
BRANCH  19  20
ATOM     20  N   LYS B   1       4.135  80.432  68.270  1.00  0.00     0.312 N 
ATOM     21  H   LYS B   1       5.034  80.539  68.834  1.00  0.00     0.359 HD
ENDBRANCH  19  20
BRANCH  19  22
ATOM     22  CB  LYS B   1       1.820  81.265  68.315  1.00  0.00     0.048 C 
BRANCH  22  23
ATOM     23  CG  LYS B   1       1.048  82.077  67.245  1.00  0.00     0.004 C 
BRANCH  23  24
ATOM     24  CD  LYS B   1      -0.062  82.976  67.796  1.00  0.00     0.027 C 
BRANCH  24  25
ATOM     25  CE  LYS B   1       0.568  84.146  68.564  1.00  0.00     0.229 C 
BRANCH  25  26
ATOM     26  NZ  LYS B   1       0.340  83.964  70.008  1.00  0.00    -0.079 N 
ATOM     27  HZ3 LYS B   1       1.218  83.650  70.397  1.00  0.00     0.274 HD
ATOM     28  HZ2 LYS B   1      -0.403  83.280  70.185  1.00  0.00     0.274 HD
ATOM     29  HZ1 LYS B   1       0.028  84.842  70.439  1.00  0.00     0.274 HD
ENDBRANCH  25  26
ENDBRANCH  24  25
ENDBRANCH  23  24
ENDBRANCH  22  23
ENDBRANCH  19  22
ENDBRANCH  17  19
ENDBRANCH  11  15
ENDBRANCH   9  11
ENDBRANCH   6   7
BRANCH   6  30
ATOM     30  CB  PHE B   3       6.491  87.302  68.295  1.00  0.00     0.073 C 
BRANCH  30  31
ATOM     31  CG  PHE B   3       7.372  88.360  68.978  1.00  0.00    -0.056 A 
ATOM     32  CD2 PHE B   3       8.662  88.626  68.512  1.00  0.00     0.007 A 
ATOM     33  CE2 PHE B   3       9.422  89.635  69.097  1.00  0.00     0.001 A 
ATOM     34  CZ  PHE B   3       8.895  90.385  70.146  1.00  0.00     0.000 A 
ATOM     35  CE1 PHE B   3       7.610  90.124  70.616  1.00  0.00     0.001 A 
ATOM     36  CD1 PHE B   3       6.854  89.110  70.040  1.00  0.00     0.007 A 
ENDBRANCH  30  31
ENDBRANCH   6  30
ENDBRANCH   3   6
ENDBRANCH   1   2
BRANCH   1  37
ATOM     37  CB  LYS B   4       1.462  89.062  67.335  1.00  0.00     0.035 C 
BRANCH  37  38
ATOM     38  CG  LYS B   4       1.461  89.929  68.619  1.00  0.00     0.004 C 
BRANCH  38  39
ATOM     39  CD  LYS B   4       0.614  89.378  69.769  1.00  0.00     0.027 C 
BRANCH  39  40
ATOM     40  CE  LYS B   4       0.856  87.868  69.896  1.00  0.00     0.229 C 
BRANCH  40  41
ATOM     41  NZ  LYS B   4       0.040  87.332  71.000  1.00  0.00    -0.079 N 
ATOM     42  HZ3 LYS B   4      -0.923  87.494  70.746  1.00  0.00     0.274 HD
ATOM     43  HZ2 LYS B   4       0.265  87.793  71.888  1.00  0.00     0.274 HD
ATOM     44  HZ1 LYS B   4       0.231  86.333  71.140  1.00  0.00     0.274 HD
ENDBRANCH  40  41
ENDBRANCH  39  40
ENDBRANCH  38  39
ENDBRANCH  37  38
ENDBRANCH   1  37
BRANCH   1  45
ATOM     45  C   LYS B   4       3.191  90.322  65.997  1.00  0.00     0.241 C 
ATOM     46  O   LYS B   4       2.311  91.041  65.516  1.00  0.00    -0.271 OA
ATOM     47  N   THR B   5       4.482  90.634  65.955  1.00  7.70    -0.344 N 
ATOM     48  H   THR B   5       5.133  90.012  66.345  1.00  0.23     0.163 HD
BRANCH  47  49
ATOM     49  CA  THR B   5       4.959  91.878  65.359  1.00  7.88     0.205 C 
BRANCH  49  50
ATOM     50  CB  THR B   5       6.019  92.523  66.253  1.00  4.05     0.146 C 
ATOM     51  CG2 THR B   5       6.812  91.518  67.060  1.00  3.72     0.042 C 
BRANCH  50  52
ATOM     52  OG1 THR B   5       6.939  93.272  65.478  1.00  7.31    -0.393 OA
ATOM     53  HG1 THR B   5       6.470  93.960  65.002  1.00  0.23     0.210 HD
ENDBRANCH  50  52
ENDBRANCH  49  50
BRANCH  49  54
ATOM     54  C   THR B   5       5.536  91.621  63.970  1.00  7.05     0.243 C 
ATOM     55  O   THR B   5       5.476  92.484  63.094  1.00  6.06    -0.271 OA
ATOM     56  N   TRP B   6       6.096  90.433  63.776  1.00  0.00    -0.346 N 
ATOM     57  H   TRP B   6       6.115  89.786  64.513  1.00  0.23     0.163 HD
BRANCH  56  58
ATOM     58  CA  TRP B   6       6.686  90.066  62.495  1.00  0.00     0.181 C 
BRANCH  58  59
ATOM     59  CB  TRP B   6       8.005  89.324  62.714  1.00  0.00     0.075 C 
BRANCH  59  60
ATOM     60  CG  TRP B   6       8.860  89.952  63.772  1.00  0.00    -0.028 A 
ATOM     61  CD2 TRP B   6       9.314  91.311  63.812  1.00  0.00    -0.002 A 
ATOM     62  CE3 TRP B   6       9.147  92.414  62.971  1.00  0.00     0.014 A 
ATOM     63  CE2 TRP B   6      10.079  91.460  64.984  1.00  0.00     0.042 A 
ATOM     64  CZ3 TRP B   6       9.740  93.614  63.321  1.00  0.00     0.001 A 
ATOM     65  CH2 TRP B   6      10.497  93.733  64.493  1.00  0.00     0.002 A 
ATOM     66  CZ2 TRP B   6      10.675  92.669  65.334  1.00  0.00     0.030 A 
ATOM     67  NE1 TRP B   6      10.091  90.249  65.626  1.00  0.00    -0.365 N 
ATOM     68  HE1 TRP B   6      10.548  90.056  66.472  1.00  0.23     0.165 HD
ATOM     69  CD1 TRP B   6       9.357  89.349  64.891  1.00  0.00     0.096 A 
ENDBRANCH  59  60
ENDBRANCH  58  59
BRANCH  58  70
ATOM     70  C   TRP B   6       5.728  89.205  61.679  1.00  0.00     0.241 C 
ATOM     71  N   VAL B   7       6.076  87.932  61.522  1.00  6.11    -0.344 N 
ATOM     72  H   VAL B   7       6.908  87.611  61.927  1.00  0.23     0.163 HD
ATOM     73  O   TRP B   6       4.700  89.686  61.201  1.00  0.00    -0.271 OA
BRANCH  71  74
ATOM     74  CA  VAL B   7       5.251  87.001  60.762  1.00  5.65     0.189 C 
BRANCH  74  75
ATOM     75  CB  VAL B   7       6.120  86.047  59.920  1.00  1.15     0.010 C 
ATOM     76  CG1 VAL B   7       5.436  85.729  58.598  1.00  4.96     0.012 C 
ATOM     77  CG2 VAL B   7       7.499  86.643  59.683  1.00  9.83     0.012 C 
ENDBRANCH  74  75
BRANCH  74  78
ATOM     78  C   VAL B   7       4.357  86.177  61.685  1.00  4.44     0.197 C 
ATOM     79  O   VAL B   7       4.657  84.982  61.883  1.00  0.00    -0.646 OA
ATOM     80  OXT VAL B   7       3.365  86.734  62.199  1.00  0.00    -0.646 OA
ENDBRANCH  74  78
ENDBRANCH  71  74
ENDBRANCH  58  70
ENDBRANCH  56  58
ENDBRANCH  49  54
ENDBRANCH  47  49
ENDBRANCH   1  45
TORSDOF 33
ENDMDL
MODEL 6
REMARK VINA RESULT:      -3.8      2.959      5.416
REMARK WARNING: 32 MAX_TORS EXCEEDED!!!
REMARK  33 active torsions:
REMARK  status: ('A' for Active; 'I' for Inactive)
REMARK    1  A    between atoms: N_1  and  CA_2 
REMARK    2  A    between atoms: CA_2  and  CB_5 
REMARK    3  A    between atoms: CA_2  and  C_3 
REMARK       I    between atoms: C_3  and  N_14 
REMARK    4  A    between atoms: CB_5  and  CG_6 
REMARK    5  A    between atoms: CG_6  and  CD_7 
REMARK    6  A    between atoms: CD_7  and  CE_8 
REMARK    7  A    between atoms: CE_8  and  NZ_9 
REMARK    8  A    between atoms: N_14  and  CA_15 
REMARK    9  A    between atoms: CA_15  and  CB_18 
REMARK   10  A    between atoms: CA_15  and  C_16 
REMARK       I    between atoms: C_16  and  N_22 
REMARK   11  A    between atoms: CB_18  and  SG_19 
REMARK   12  A    between atoms: N_22  and  CA_23 
REMARK   13  A    between atoms: CA_23  and  CB_26 
REMARK   14  A    between atoms: CA_23  and  C_24 
REMARK       I    between atoms: C_24  and  N_34 
REMARK   15  A    between atoms: CB_26  and  CG_27 
REMARK   16  A    between atoms: N_34  and  CA_35 
REMARK   17  A    between atoms: CA_35  and  CB_38 
REMARK   18  A    between atoms: CA_35  and  C_36 
REMARK       I    between atoms: C_36  and  N_53 
REMARK   19  A    between atoms: CB_38  and  CG_39 
REMARK   20  A    between atoms: CG_39  and  CD_40 
REMARK   21  A    between atoms: CD_40  and  CE_41 
REMARK   22  A    between atoms: CE_41  and  NZ_42 
REMARK   23  A    between atoms: CA_47  and  N_53 
REMARK   24  A    between atoms: CA_47  and  CB_49 
REMARK   25  A    between atoms: CA_47  and  C_48 
REMARK       I    between atoms: C_48  and  N_69 
REMARK   26  A    between atoms: CB_49  and  OG1_55 
REMARK   27  A    between atoms: CA_56  and  CB_58 
REMARK   28  A    between atoms: CA_56  and  N_69 
REMARK   29  A    between atoms: CA_56  and  C_57 
REMARK       I    between atoms: C_57  and  N_78 
REMARK   30  A    between atoms: CB_58  and  CG_59 
REMARK   31  A    between atoms: CA_72  and  N_78 
REMARK   32  A    between atoms: CA_72  and  CB_74 
REMARK   33  A    between atoms: CA_72  and  C_73 
ROOT
ATOM      1  CA  LYS B   4       3.242  88.330  66.661  1.00  0.00     0.176 C 
ENDROOT
BRANCH   1   2
ATOM      2  N   LYS B   4       4.246  87.892  67.626  1.00  0.00    -0.346 N 
ATOM      3  C   PHE B   3       4.205  86.677  68.180  1.00  0.00     0.241 C 
ATOM      4  O   PHE B   3       3.311  85.863  67.898  1.00  0.00    -0.271 OA
ATOM      5  H   LYS B   4       4.969  88.506  67.875  1.00  0.00     0.163 HD
BRANCH   3   6
ATOM      6  CA  PHE B   3       5.303  86.301  69.146  1.00  0.00     0.180 C 
BRANCH   6   7
ATOM      7  N   PHE B   3       5.336  84.858  69.364  1.00  0.00    -0.346 N 
ATOM      8  H   PHE B   3       5.085  84.259  68.633  1.00  0.00     0.163 HD
ATOM      9  C   CYS B   2       5.704  84.332  70.547  1.00  0.00     0.241 C 
ATOM     10  O   CYS B   2       6.036  85.029  71.501  1.00  0.00    -0.271 OA
BRANCH   9  11
ATOM     11  CA  CYS B   2       5.648  82.825  70.645  1.00  0.00     0.185 C 
BRANCH  11  12
ATOM     12  CB  CYS B   2       6.746  82.254  71.562  1.00  0.00     0.105 C 
BRANCH  12  13
ATOM     13  SG  CYS B   2       8.380  82.815  71.031  1.00  0.00    -0.180 SA
ATOM     14  HG  CYS B   2       9.042  82.428  72.118  1.00  0.00     0.101 HD
ENDBRANCH  12  13
ENDBRANCH  11  12
BRANCH  11  15
ATOM     15  N   CYS B   2       5.778  82.211  69.327  1.00  0.00    -0.345 N 
ATOM     16  H   CYS B   2       6.507  82.498  68.732  1.00  0.00     0.163 HD
ATOM     17  C   LYS B   1       4.930  81.266  68.909  1.00  0.00     0.254 C 
ATOM     18  O   LYS B   1       4.028  80.828  69.631  1.00  0.00    -0.271 OA
BRANCH  17  19
ATOM     19  CA  LYS B   1       5.165  80.726  67.517  1.00  0.00     0.350 C 
BRANCH  19  20
ATOM     20  N   LYS B   1       5.995  79.526  67.555  1.00  0.00     0.312 N 
ATOM     21  H   LYS B   1       6.399  79.340  66.585  1.00  0.00     0.359 HD
ENDBRANCH  19  20
BRANCH  19  22
ATOM     22  CB  LYS B   1       3.818  80.403  66.814  1.00  0.00     0.048 C 
BRANCH  22  23
ATOM     23  CG  LYS B   1       3.833  80.695  65.292  1.00  0.00     0.004 C 
BRANCH  23  24
ATOM     24  CD  LYS B   1       2.787  81.708  64.821  1.00  0.00     0.027 C 
BRANCH  24  25
ATOM     25  CE  LYS B   1       2.144  82.378  66.043  1.00  0.00     0.229 C 
BRANCH  25  26
ATOM     26  NZ  LYS B   1       1.964  83.815  65.776  1.00  0.00    -0.079 N 
ATOM     27  HZ3 LYS B   1       1.892  83.911  64.773  1.00  0.00     0.274 HD
ATOM     28  HZ2 LYS B   1       2.749  84.365  66.139  1.00  0.00     0.274 HD
ATOM     29  HZ1 LYS B   1       1.124  84.170  66.250  1.00  0.00     0.274 HD
ENDBRANCH  25  26
ENDBRANCH  24  25
ENDBRANCH  23  24
ENDBRANCH  22  23
ENDBRANCH  19  22
ENDBRANCH  17  19
ENDBRANCH  11  15
ENDBRANCH   9  11
ENDBRANCH   6   7
BRANCH   6  30
ATOM     30  CB  PHE B   3       6.668  86.786  68.570  1.00  0.00     0.073 C 
BRANCH  30  31
ATOM     31  CG  PHE B   3       7.388  87.894  69.355  1.00  0.00    -0.056 A 
ATOM     32  CD2 PHE B   3       6.743  88.568  70.394  1.00  0.00     0.007 A 
ATOM     33  CE2 PHE B   3       7.431  89.520  71.143  1.00  0.00     0.001 A 
ATOM     34  CZ  PHE B   3       8.767  89.797  70.859  1.00  0.00     0.000 A 
ATOM     35  CE1 PHE B   3       9.416  89.128  69.823  1.00  0.00     0.001 A 
ATOM     36  CD1 PHE B   3       8.726  88.186  69.068  1.00  0.00     0.007 A 
ENDBRANCH  30  31
ENDBRANCH   6  30
ENDBRANCH   3   6
ENDBRANCH   1   2
BRANCH   1  37
ATOM     37  CB  LYS B   4       1.850  88.375  67.347  1.00  0.00     0.035 C 
BRANCH  37  38
ATOM     38  CG  LYS B   4       1.748  89.442  68.466  1.00  0.00     0.004 C 
BRANCH  38  39
ATOM     39  CD  LYS B   4       1.282  88.910  69.824  1.00  0.00     0.027 C 
BRANCH  39  40
ATOM     40  CE  LYS B   4       0.693  87.505  69.641  1.00  0.00     0.229 C 
BRANCH  40  41
ATOM     41  NZ  LYS B   4       1.497  86.535  70.406  1.00  0.00    -0.079 N 
ATOM     42  HZ3 LYS B   4       0.893  85.748  70.591  1.00  0.00     0.274 HD
ATOM     43  HZ2 LYS B   4       1.843  86.944  71.280  1.00  0.00     0.274 HD
ATOM     44  HZ1 LYS B   4       2.330  86.255  69.873  1.00  0.00     0.274 HD
ENDBRANCH  40  41
ENDBRANCH  39  40
ENDBRANCH  38  39
ENDBRANCH  37  38
ENDBRANCH   1  37
BRANCH   1  45
ATOM     45  C   LYS B   4       3.601  89.676  66.079  1.00  0.00     0.241 C 
ATOM     46  O   LYS B   4       2.798  90.296  65.377  1.00  0.00    -0.271 OA
ATOM     47  N   THR B   5       4.828  90.118  66.336  1.00  7.70    -0.344 N 
ATOM     48  H   THR B   5       5.422  89.571  66.891  1.00  0.23     0.163 HD
BRANCH  47  49
ATOM     49  CA  THR B   5       5.312  91.398  65.827  1.00  7.88     0.205 C 
BRANCH  49  50
ATOM     50  CB  THR B   5       5.904  92.232  66.964  1.00  4.05     0.146 C 
ATOM     51  CG2 THR B   5       6.696  91.410  67.958  1.00  3.72     0.042 C 
BRANCH  50  52
ATOM     52  OG1 THR B   5       6.766  93.234  66.454  1.00  7.31    -0.393 OA
ATOM     53  HG1 THR B   5       6.261  93.846  65.915  1.00  0.23     0.210 HD
ENDBRANCH  50  52
ENDBRANCH  49  50
BRANCH  49  54
ATOM     54  C   THR B   5       6.360  91.182  64.740  1.00  7.05     0.243 C 
ATOM     55  O   THR B   5       6.433  91.943  63.775  1.00  6.06    -0.271 OA
ATOM     56  N   TRP B   6       7.172  90.143  64.903  1.00  0.00    -0.346 N 
ATOM     57  H   TRP B   6       7.066  89.573  65.693  1.00  0.23     0.163 HD
BRANCH  56  58
ATOM     58  CA  TRP B   6       8.217  89.831  63.937  1.00  0.00     0.181 C 
BRANCH  58  59
ATOM     59  CB  TRP B   6       7.821  90.336  62.549  1.00  0.00     0.075 C 
BRANCH  59  60
ATOM     60  CG  TRP B   6       7.288  89.252  61.663  1.00  0.00    -0.028 A 
ATOM     61  CD2 TRP B   6       6.051  89.266  60.941  1.00  0.00    -0.002 A 
ATOM     62  CE3 TRP B   6       5.008  90.189  60.823  1.00  0.00     0.014 A 
ATOM     63  CE2 TRP B   6       5.964  88.049  60.239  1.00  0.00     0.042 A 
ATOM     64  CZ3 TRP B   6       3.928  89.873  60.018  1.00  0.00     0.001 A 
ATOM     65  CH2 TRP B   6       3.869  88.654  59.331  1.00  0.00     0.002 A 
ATOM     66  CZ2 TRP B   6       4.877  87.734  59.429  1.00  0.00     0.030 A 
ATOM     67  NE1 TRP B   6       7.097  87.329  60.520  1.00  0.00    -0.365 N 
ATOM     68  HE1 TRP B   6       7.309  86.439  60.168  1.00  0.23     0.165 HD
ATOM     69  CD1 TRP B   6       7.886  88.059  61.376  1.00  0.00     0.096 A 
ENDBRANCH  59  60
ENDBRANCH  58  59
BRANCH  58  70
ATOM     70  C   TRP B   6       9.549  90.444  64.359  1.00  0.00     0.241 C 
ATOM     71  N   VAL B   7      10.050  91.370  63.547  1.00  6.11    -0.344 N 
ATOM     72  H   VAL B   7       9.555  91.613  62.738  1.00  0.23     0.163 HD
ATOM     73  O   TRP B   6      10.111  90.082  65.393  1.00  0.00    -0.271 OA
BRANCH  71  74
ATOM     74  CA  VAL B   7      11.316  92.032  63.830  1.00  5.65     0.189 C 
BRANCH  74  75
ATOM     75  CB  VAL B   7      11.160  93.078  64.952  1.00  1.15     0.010 C 
ATOM     76  CG1 VAL B   7      12.235  94.149  64.837  1.00  4.96     0.012 C 
ATOM     77  CG2 VAL B   7       9.772  93.700  64.918  1.00  9.83     0.012 C 
ENDBRANCH  74  75
BRANCH  74  78
ATOM     78  C   VAL B   7      12.387  91.023  64.234  1.00  4.44     0.197 C 
ATOM     79  O   VAL B   7      12.805  91.047  65.411  1.00  0.00    -0.646 OA
ATOM     80  OXT VAL B   7      12.800  90.221  63.372  1.00  0.00    -0.646 OA
ENDBRANCH  74  78
ENDBRANCH  71  74
ENDBRANCH  58  70
ENDBRANCH  56  58
ENDBRANCH  49  54
ENDBRANCH  47  49
ENDBRANCH   1  45
TORSDOF 33
ENDMDL
MODEL 7
REMARK VINA RESULT:      -3.7      3.073      5.028
REMARK WARNING: 32 MAX_TORS EXCEEDED!!!
REMARK  33 active torsions:
REMARK  status: ('A' for Active; 'I' for Inactive)
REMARK    1  A    between atoms: N_1  and  CA_2 
REMARK    2  A    between atoms: CA_2  and  CB_5 
REMARK    3  A    between atoms: CA_2  and  C_3 
REMARK       I    between atoms: C_3  and  N_14 
REMARK    4  A    between atoms: CB_5  and  CG_6 
REMARK    5  A    between atoms: CG_6  and  CD_7 
REMARK    6  A    between atoms: CD_7  and  CE_8 
REMARK    7  A    between atoms: CE_8  and  NZ_9 
REMARK    8  A    between atoms: N_14  and  CA_15 
REMARK    9  A    between atoms: CA_15  and  CB_18 
REMARK   10  A    between atoms: CA_15  and  C_16 
REMARK       I    between atoms: C_16  and  N_22 
REMARK   11  A    between atoms: CB_18  and  SG_19 
REMARK   12  A    between atoms: N_22  and  CA_23 
REMARK   13  A    between atoms: CA_23  and  CB_26 
REMARK   14  A    between atoms: CA_23  and  C_24 
REMARK       I    between atoms: C_24  and  N_34 
REMARK   15  A    between atoms: CB_26  and  CG_27 
REMARK   16  A    between atoms: N_34  and  CA_35 
REMARK   17  A    between atoms: CA_35  and  CB_38 
REMARK   18  A    between atoms: CA_35  and  C_36 
REMARK       I    between atoms: C_36  and  N_53 
REMARK   19  A    between atoms: CB_38  and  CG_39 
REMARK   20  A    between atoms: CG_39  and  CD_40 
REMARK   21  A    between atoms: CD_40  and  CE_41 
REMARK   22  A    between atoms: CE_41  and  NZ_42 
REMARK   23  A    between atoms: CA_47  and  N_53 
REMARK   24  A    between atoms: CA_47  and  CB_49 
REMARK   25  A    between atoms: CA_47  and  C_48 
REMARK       I    between atoms: C_48  and  N_69 
REMARK   26  A    between atoms: CB_49  and  OG1_55 
REMARK   27  A    between atoms: CA_56  and  CB_58 
REMARK   28  A    between atoms: CA_56  and  N_69 
REMARK   29  A    between atoms: CA_56  and  C_57 
REMARK       I    between atoms: C_57  and  N_78 
REMARK   30  A    between atoms: CB_58  and  CG_59 
REMARK   31  A    between atoms: CA_72  and  N_78 
REMARK   32  A    between atoms: CA_72  and  CB_74 
REMARK   33  A    between atoms: CA_72  and  C_73 
ROOT
ATOM      1  CA  LYS B   4       3.046  88.531  66.433  1.00  0.00     0.176 C 
ENDROOT
BRANCH   1   2
ATOM      2  N   LYS B   4       4.214  88.180  67.235  1.00  0.00    -0.346 N 
ATOM      3  C   PHE B   3       4.300  87.011  67.877  1.00  0.00     0.241 C 
ATOM      4  O   PHE B   3       3.390  86.169  67.819  1.00  0.00    -0.271 OA
ATOM      5  H   LYS B   4       4.955  88.818  67.306  1.00  0.00     0.163 HD
BRANCH   3   6
ATOM      6  CA  PHE B   3       5.559  86.722  68.658  1.00  0.00     0.180 C 
BRANCH   6   7
ATOM      7  N   PHE B   3       5.611  85.321  69.066  1.00  0.00    -0.346 N 
ATOM      8  H   PHE B   3       5.377  84.626  68.419  1.00  0.00     0.163 HD
ATOM      9  C   CYS B   2       5.975  84.963  70.311  1.00  0.00     0.241 C 
ATOM     10  O   CYS B   2       6.286  85.786  71.167  1.00  0.00    -0.271 OA
BRANCH   9  11
ATOM     11  CA  CYS B   2       5.940  83.482  70.608  1.00  0.00     0.185 C 
BRANCH  11  12
ATOM     12  CB  CYS B   2       7.080  83.043  71.548  1.00  0.00     0.105 C 
BRANCH  12  13
ATOM     13  SG  CYS B   2       8.135  81.815  70.745  1.00  0.00    -0.180 SA
ATOM     14  HG  CYS B   2       9.127  81.853  71.631  1.00  0.00     0.101 HD
ENDBRANCH  12  13
ENDBRANCH  11  12
BRANCH  11  15
ATOM     15  N   CYS B   2       6.026  82.700  69.378  1.00  0.00    -0.345 N 
ATOM     16  H   CYS B   2       6.698  82.941  68.701  1.00  0.00     0.163 HD
ATOM     17  C   LYS B   1       5.214  81.664  69.150  1.00  0.00     0.254 C 
ATOM     18  O   LYS B   1       4.387  81.281  69.984  1.00  0.00    -0.271 OA
BRANCH  17  19
ATOM     19  CA  LYS B   1       5.395  80.951  67.829  1.00  0.00     0.350 C 
BRANCH  19  20
ATOM     20  N   LYS B   1       6.334  79.841  67.959  1.00  0.00     0.312 N 
ATOM     21  H   LYS B   1       6.682  79.553  66.991  1.00  0.00     0.359 HD
ENDBRANCH  19  20
BRANCH  19  22
ATOM     22  CB  LYS B   1       4.037  80.420  67.295  1.00  0.00     0.048 C 
BRANCH  22  23
ATOM     23  CG  LYS B   1       3.744  80.840  65.833  1.00  0.00     0.004 C 
BRANCH  23  24
ATOM     24  CD  LYS B   1       2.514  81.735  65.653  1.00  0.00     0.027 C 
BRANCH  24  25
ATOM     25  CE  LYS B   1       2.053  82.242  67.027  1.00  0.00     0.229 C 
BRANCH  25  26
ATOM     26  NZ  LYS B   1       1.720  83.674  66.933  1.00  0.00    -0.079 N 
ATOM     27  HZ3 LYS B   1       1.575  83.995  67.880  1.00  0.00     0.274 HD
ATOM     28  HZ2 LYS B   1       0.881  83.826  66.364  1.00  0.00     0.274 HD
ATOM     29  HZ1 LYS B   1       2.476  84.193  66.471  1.00  0.00     0.274 HD
ENDBRANCH  25  26
ENDBRANCH  24  25
ENDBRANCH  23  24
ENDBRANCH  22  23
ENDBRANCH  19  22
ENDBRANCH  17  19
ENDBRANCH  11  15
ENDBRANCH   9  11
ENDBRANCH   6   7
BRANCH   6  30
ATOM     30  CB  PHE B   3       6.792  87.066  67.769  1.00  0.00     0.073 C 
BRANCH  30  31
ATOM     31  CG  PHE B   3       7.688  88.217  68.257  1.00  0.00    -0.056 A 
ATOM     32  CD2 PHE B   3       7.332  88.976  69.374  1.00  0.00     0.007 A 
ATOM     33  CE2 PHE B   3       8.187  89.969  69.846  1.00  0.00     0.001 A 
ATOM     34  CZ  PHE B   3       9.403  90.202  69.206  1.00  0.00     0.000 A 
ATOM     35  CE1 PHE B   3       9.764  89.449  68.091  1.00  0.00     0.001 A 
ATOM     36  CD1 PHE B   3       8.905  88.466  67.613  1.00  0.00     0.007 A 
ENDBRANCH  30  31
ENDBRANCH   6  30
ENDBRANCH   3   6
ENDBRANCH   1   2
BRANCH   1  37
ATOM     37  CB  LYS B   4       1.775  88.489  67.325  1.00  0.00     0.035 C 
BRANCH  37  38
ATOM     38  CG  LYS B   4       1.769  89.563  68.441  1.00  0.00     0.004 C 
BRANCH  38  39
ATOM     39  CD  LYS B   4       1.511  89.025  69.852  1.00  0.00     0.027 C 
BRANCH  39  40
ATOM     40  CE  LYS B   4       0.936  87.606  69.753  1.00  0.00     0.229 C 
BRANCH  40  41
ATOM     41  NZ  LYS B   4       1.828  86.666  70.456  1.00  0.00    -0.079 N 
ATOM     42  HZ3 LYS B   4       2.664  87.183  70.682  1.00  0.00     0.274 HD
ATOM     43  HZ2 LYS B   4       2.048  85.853  69.871  1.00  0.00     0.274 HD
ATOM     44  HZ1 LYS B   4       1.372  86.296  71.299  1.00  0.00     0.274 HD
ENDBRANCH  40  41
ENDBRANCH  39  40
ENDBRANCH  38  39
ENDBRANCH  37  38
ENDBRANCH   1  37
BRANCH   1  45
ATOM     45  C   LYS B   4       3.215  89.890  65.797  1.00  0.00     0.241 C 
ATOM     46  O   LYS B   4       2.257  90.467  65.275  1.00  0.00    -0.271 OA
ATOM     47  N   THR B   5       4.446  90.392  65.802  1.00  7.70    -0.344 N 
ATOM     48  H   THR B   5       5.166  89.876  66.223  1.00  0.23     0.163 HD
BRANCH  47  49
ATOM     49  CA  THR B   5       4.755  91.690  65.211  1.00  7.88     0.205 C 
BRANCH  49  50
ATOM     50  CB  THR B   5       5.406  92.604  66.251  1.00  4.05     0.146 C 
ATOM     51  CG2 THR B   5       6.160  91.848  67.323  1.00  3.72     0.042 C 
BRANCH  50  52
ATOM     52  OG1 THR B   5       6.318  93.495  65.633  1.00  7.31    -0.393 OA
ATOM     53  HG1 THR B   5       5.844  94.074  65.034  1.00  0.23     0.210 HD
ENDBRANCH  50  52
ENDBRANCH  49  50
BRANCH  49  54
ATOM     54  C   THR B   5       5.680  91.528  64.009  1.00  7.05     0.243 C 
ATOM     55  O   THR B   5       5.517  92.203  62.994  1.00  6.06    -0.271 OA
ATOM     56  N   TRP B   6       6.651  90.630  64.132  1.00  0.00    -0.346 N 
ATOM     57  H   TRP B   6       6.732  90.122  64.967  1.00  0.23     0.163 HD
BRANCH  56  58
ATOM     58  CA  TRP B   6       7.603  90.383  63.057  1.00  0.00     0.181 C 
BRANCH  58  59
ATOM     59  CB  TRP B   6       8.876  89.744  63.614  1.00  0.00     0.075 C 
BRANCH  59  60
ATOM     60  CG  TRP B   6       9.687  90.688  64.447  1.00  0.00    -0.028 A 
ATOM     61  CD2 TRP B   6      11.117  90.782  64.489  1.00  0.00    -0.002 A 
ATOM     62  CE3 TRP B   6      12.152  90.099  63.846  1.00  0.00     0.014 A 
ATOM     63  CE2 TRP B   6      11.440  91.806  65.399  1.00  0.00     0.042 A 
ATOM     64  CZ3 TRP B   6      13.459  90.455  64.126  1.00  0.00     0.001 A 
ATOM     65  CH2 TRP B   6      13.752  91.477  65.037  1.00  0.00     0.002 A 
ATOM     66  CZ2 TRP B   6      12.757  92.162  65.679  1.00  0.00     0.030 A 
ATOM     67  NE1 TRP B   6      10.263  92.311  65.887  1.00  0.00    -0.365 N 
ATOM     68  HE1 TRP B   6      10.182  93.037  66.541  1.00  0.23     0.165 HD
ATOM     69  CD1 TRP B   6       9.216  91.634  65.310  1.00  0.00     0.096 A 
ENDBRANCH  59  60
ENDBRANCH  58  59
BRANCH  58  70
ATOM     70  C   TRP B   6       6.992  89.489  61.982  1.00  0.00     0.241 C 
ATOM     71  N   VAL B   7       7.281  88.194  62.067  1.00  6.11    -0.344 N 
ATOM     72  H   VAL B   7       7.855  87.880  62.795  1.00  0.23     0.163 HD
ATOM     73  O   TRP B   6       6.281  89.963  61.096  1.00  0.00    -0.271 OA
BRANCH  71  74
ATOM     74  CA  VAL B   7       6.765  87.231  61.103  1.00  5.65     0.189 C 
BRANCH  74  75
ATOM     75  CB  VAL B   7       5.269  86.947  61.344  1.00  1.15     0.010 C 
ATOM     76  CG1 VAL B   7       5.038  85.460  61.574  1.00  4.96     0.012 C 
ATOM     77  CG2 VAL B   7       4.750  87.762  62.519  1.00  9.83     0.012 C 
ENDBRANCH  74  75
BRANCH  74  78
ATOM     78  C   VAL B   7       6.954  87.727  59.672  1.00  4.44     0.197 C 
ATOM     79  O   VAL B   7       5.938  87.881  58.963  1.00  0.00    -0.646 OA
ATOM     80  OXT VAL B   7       8.114  87.956  59.274  1.00  0.00    -0.646 OA
ENDBRANCH  74  78
ENDBRANCH  71  74
ENDBRANCH  58  70
ENDBRANCH  56  58
ENDBRANCH  49  54
ENDBRANCH  47  49
ENDBRANCH   1  45
TORSDOF 33
ENDMDL
MODEL 8
REMARK VINA RESULT:      -3.6      2.863      5.179
REMARK WARNING: 32 MAX_TORS EXCEEDED!!!
REMARK  33 active torsions:
REMARK  status: ('A' for Active; 'I' for Inactive)
REMARK    1  A    between atoms: N_1  and  CA_2 
REMARK    2  A    between atoms: CA_2  and  CB_5 
REMARK    3  A    between atoms: CA_2  and  C_3 
REMARK       I    between atoms: C_3  and  N_14 
REMARK    4  A    between atoms: CB_5  and  CG_6 
REMARK    5  A    between atoms: CG_6  and  CD_7 
REMARK    6  A    between atoms: CD_7  and  CE_8 
REMARK    7  A    between atoms: CE_8  and  NZ_9 
REMARK    8  A    between atoms: N_14  and  CA_15 
REMARK    9  A    between atoms: CA_15  and  CB_18 
REMARK   10  A    between atoms: CA_15  and  C_16 
REMARK       I    between atoms: C_16  and  N_22 
REMARK   11  A    between atoms: CB_18  and  SG_19 
REMARK   12  A    between atoms: N_22  and  CA_23 
REMARK   13  A    between atoms: CA_23  and  CB_26 
REMARK   14  A    between atoms: CA_23  and  C_24 
REMARK       I    between atoms: C_24  and  N_34 
REMARK   15  A    between atoms: CB_26  and  CG_27 
REMARK   16  A    between atoms: N_34  and  CA_35 
REMARK   17  A    between atoms: CA_35  and  CB_38 
REMARK   18  A    between atoms: CA_35  and  C_36 
REMARK       I    between atoms: C_36  and  N_53 
REMARK   19  A    between atoms: CB_38  and  CG_39 
REMARK   20  A    between atoms: CG_39  and  CD_40 
REMARK   21  A    between atoms: CD_40  and  CE_41 
REMARK   22  A    between atoms: CE_41  and  NZ_42 
REMARK   23  A    between atoms: CA_47  and  N_53 
REMARK   24  A    between atoms: CA_47  and  CB_49 
REMARK   25  A    between atoms: CA_47  and  C_48 
REMARK       I    between atoms: C_48  and  N_69 
REMARK   26  A    between atoms: CB_49  and  OG1_55 
REMARK   27  A    between atoms: CA_56  and  CB_58 
REMARK   28  A    between atoms: CA_56  and  N_69 
REMARK   29  A    between atoms: CA_56  and  C_57 
REMARK       I    between atoms: C_57  and  N_78 
REMARK   30  A    between atoms: CB_58  and  CG_59 
REMARK   31  A    between atoms: CA_72  and  N_78 
REMARK   32  A    between atoms: CA_72  and  CB_74 
REMARK   33  A    between atoms: CA_72  and  C_73 
ROOT
ATOM      1  CA  LYS B   4       3.165  88.442  66.446  1.00  0.00     0.176 C 
ENDROOT
BRANCH   1   2
ATOM      2  N   LYS B   4       4.153  88.082  67.458  1.00  0.00    -0.346 N 
ATOM      3  C   PHE B   3       4.176  86.869  68.017  1.00  0.00     0.241 C 
ATOM      4  O   PHE B   3       3.357  85.991  67.700  1.00  0.00    -0.271 OA
ATOM      5  H   LYS B   4       4.817  88.748  67.736  1.00  0.00     0.163 HD
BRANCH   3   6
ATOM      6  CA  PHE B   3       5.253  86.577  69.034  1.00  0.00     0.180 C 
BRANCH   6   7
ATOM      7  N   PHE B   3       5.104  85.232  69.582  1.00  0.00    -0.346 N 
ATOM      8  H   PHE B   3       4.232  84.792  69.538  1.00  0.00     0.163 HD
ATOM      9  C   CYS B   2       6.139  84.582  70.145  1.00  0.00     0.241 C 
ATOM     10  O   CYS B   2       7.260  85.075  70.225  1.00  0.00    -0.271 OA
BRANCH   9  11
ATOM     11  CA  CYS B   2       5.830  83.215  70.711  1.00  0.00     0.185 C 
BRANCH  11  12
ATOM     12  CB  CYS B   2       6.987  82.654  71.560  1.00  0.00     0.105 C 
BRANCH  12  13
ATOM     13  SG  CYS B   2       7.878  81.366  70.658  1.00  0.00    -0.180 SA
ATOM     14  HG  CYS B   2       8.395  80.756  71.722  1.00  0.00     0.101 HD
ENDBRANCH  12  13
ENDBRANCH  11  12
BRANCH  11  15
ATOM     15  N   CYS B   2       5.534  82.263  69.644  1.00  0.00    -0.345 N 
ATOM     16  H   CYS B   2       6.244  82.014  69.011  1.00  0.00     0.163 HD
ATOM     17  C   LYS B   1       4.321  81.720  69.508  1.00  0.00     0.254 C 
ATOM     18  O   LYS B   1       3.405  81.953  70.304  1.00  0.00    -0.271 OA
BRANCH  17  19
ATOM     19  CA  LYS B   1       4.142  80.764  68.352  1.00  0.00     0.350 C 
BRANCH  19  20
ATOM     20  N   LYS B   1       3.758  79.438  68.825  1.00  0.00     0.312 N 
ATOM     21  H   LYS B   1       2.715  79.428  69.054  1.00  0.00     0.359 HD
ENDBRANCH  19  20
BRANCH  19  22
ATOM     22  CB  LYS B   1       3.071  81.290  67.358  1.00  0.00     0.048 C 
BRANCH  22  23
ATOM     23  CG  LYS B   1       2.573  80.212  66.363  1.00  0.00     0.004 C 
BRANCH  23  24
ATOM     24  CD  LYS B   1       2.901  80.491  64.893  1.00  0.00     0.027 C 
BRANCH  24  25
ATOM     25  CE  LYS B   1       1.884  79.767  64.001  1.00  0.00     0.229 C 
BRANCH  25  26
ATOM     26  NZ  LYS B   1       2.125  80.126  62.593  1.00  0.00    -0.079 N 
ATOM     27  HZ3 LYS B   1       2.429  81.089  62.593  1.00  0.00     0.274 HD
ATOM     28  HZ2 LYS B   1       1.277  80.011  62.027  1.00  0.00     0.274 HD
ATOM     29  HZ1 LYS B   1       2.831  79.507  62.177  1.00  0.00     0.274 HD
ENDBRANCH  25  26
ENDBRANCH  24  25
ENDBRANCH  23  24
ENDBRANCH  22  23
ENDBRANCH  19  22
ENDBRANCH  17  19
ENDBRANCH  11  15
ENDBRANCH   9  11
ENDBRANCH   6   7
BRANCH   6  30
ATOM     30  CB  PHE B   3       6.645  86.724  68.348  1.00  0.00     0.073 C 
BRANCH  30  31
ATOM     31  CG  PHE B   3       7.519  87.898  68.818  1.00  0.00    -0.056 A 
ATOM     32  CD2 PHE B   3       8.531  88.408  68.002  1.00  0.00     0.007 A 
ATOM     33  CE2 PHE B   3       9.268  89.516  68.411  1.00  0.00     0.001 A 
ATOM     34  CZ  PHE B   3       8.993  90.121  69.637  1.00  0.00     0.000 A 
ATOM     35  CE1 PHE B   3       7.986  89.616  70.456  1.00  0.00     0.001 A 
ATOM     36  CD1 PHE B   3       7.257  88.503  70.053  1.00  0.00     0.007 A 
ENDBRANCH  30  31
ENDBRANCH   6  30
ENDBRANCH   3   6
ENDBRANCH   1   2
BRANCH   1  37
ATOM     37  CB  LYS B   4       1.741  88.360  67.060  1.00  0.00     0.035 C 
BRANCH  37  38
ATOM     38  CG  LYS B   4       1.546  89.282  68.290  1.00  0.00     0.004 C 
BRANCH  38  39
ATOM     39  CD  LYS B   4       0.478  90.367  68.119  1.00  0.00     0.027 C 
BRANCH  39  40
ATOM     40  CE  LYS B   4       1.112  91.743  68.361  1.00  0.00     0.229 C 
BRANCH  40  41
ATOM     41  NZ  LYS B   4       1.050  92.536  67.120  1.00  0.00    -0.079 N 
ATOM     42  HZ3 LYS B   4       1.480  93.424  67.328  1.00  0.00     0.274 HD
ATOM     43  HZ2 LYS B   4       0.081  92.663  66.808  1.00  0.00     0.274 HD
ATOM     44  HZ1 LYS B   4       1.535  92.050  66.355  1.00  0.00     0.274 HD
ENDBRANCH  40  41
ENDBRANCH  39  40
ENDBRANCH  38  39
ENDBRANCH  37  38
ENDBRANCH   1  37
BRANCH   1  45
ATOM     45  C   LYS B   4       3.435  89.821  65.892  1.00  0.00     0.241 C 
ATOM     46  O   LYS B   4       2.554  90.447  65.296  1.00  0.00    -0.271 OA
ATOM     47  N   THR B   5       4.670  90.286  66.052  1.00  7.70    -0.344 N 
ATOM     48  H   THR B   5       5.327  89.733  66.524  1.00  0.23     0.163 HD
BRANCH  47  49
ATOM     49  CA  THR B   5       5.073  91.599  65.556  1.00  7.88     0.205 C 
BRANCH  49  50
ATOM     50  CB  THR B   5       5.664  92.436  66.692  1.00  4.05     0.146 C 
ATOM     51  CG2 THR B   5       6.256  91.600  67.805  1.00  3.72     0.042 C 
BRANCH  50  52
ATOM     52  OG1 THR B   5       6.687  93.288  66.205  1.00  7.31    -0.393 OA
ATOM     53  HG1 THR B   5       7.496  92.785  66.095  1.00  0.23     0.210 HD
ENDBRANCH  50  52
ENDBRANCH  49  50
BRANCH  49  54
ATOM     54  C   THR B   5       6.091  91.458  64.429  1.00  7.05     0.243 C 
ATOM     55  O   THR B   5       6.029  92.175  63.431  1.00  6.06    -0.271 OA
ATOM     56  N   TRP B   6       7.029  90.532  64.596  1.00  0.00    -0.346 N 
ATOM     57  H   TRP B   6       7.028  89.991  65.413  1.00  0.23     0.163 HD
BRANCH  56  58
ATOM     58  CA  TRP B   6       8.061  90.302  63.593  1.00  0.00     0.181 C 
BRANCH  58  59
ATOM     59  CB  TRP B   6       7.451  90.325  62.191  1.00  0.00     0.075 C 
BRANCH  59  60
ATOM     60  CG  TRP B   6       7.106  88.959  61.682  1.00  0.00    -0.028 A 
ATOM     61  CD2 TRP B   6       5.885  88.243  61.908  1.00  0.00    -0.002 A 
ATOM     62  CE3 TRP B   6       4.711  88.527  62.612  1.00  0.00     0.014 A 
ATOM     63  CE2 TRP B   6       5.995  87.010  61.240  1.00  0.00     0.042 A 
ATOM     64  CZ3 TRP B   6       3.699  87.584  62.625  1.00  0.00     0.001 A 
ATOM     65  CH2 TRP B   6       3.837  86.364  61.951  1.00  0.00     0.002 A 
ATOM     66  CZ2 TRP B   6       4.975  86.062  61.254  1.00  0.00     0.030 A 
ATOM     67  NE1 TRP B   6       7.225  86.977  60.635  1.00  0.00    -0.365 N 
ATOM     68  HE1 TRP B   6       7.577  86.236  60.098  1.00  0.23     0.165 HD
ATOM     69  CD1 TRP B   6       7.885  88.151  60.907  1.00  0.00     0.096 A 
ENDBRANCH  59  60
ENDBRANCH  58  59
BRANCH  58  70
ATOM     70  C   TRP B   6       9.169  91.346  63.702  1.00  0.00     0.241 C 
ATOM     71  N   VAL B   7       9.962  91.248  64.764  1.00  6.11    -0.344 N 
ATOM     72  H   VAL B   7       9.805  90.530  65.412  1.00  0.23     0.163 HD
ATOM     73  O   TRP B   6       9.298  92.220  62.844  1.00  0.00    -0.271 OA
BRANCH  71  74
ATOM     74  CA  VAL B   7      11.056  92.183  64.991  1.00  5.65     0.189 C 
BRANCH  74  75
ATOM     75  CB  VAL B   7      12.252  91.874  64.069  1.00  1.15     0.010 C 
ATOM     76  CG1 VAL B   7      13.555  92.320  64.718  1.00  4.96     0.012 C 
ATOM     77  CG2 VAL B   7      12.299  90.393  63.726  1.00  9.83     0.012 C 
ENDBRANCH  74  75
BRANCH  74  78
ATOM     78  C   VAL B   7      10.608  93.623  64.761  1.00  4.44     0.197 C 
ATOM     79  O   VAL B   7       9.634  94.049  65.416  1.00  0.00    -0.646 OA
ATOM     80  OXT VAL B   7      11.232  94.311  63.928  1.00  0.00    -0.646 OA
ENDBRANCH  74  78
ENDBRANCH  71  74
ENDBRANCH  58  70
ENDBRANCH  56  58
ENDBRANCH  49  54
ENDBRANCH  47  49
ENDBRANCH   1  45
TORSDOF 33
ENDMDL
