MODEL 1
REMARK VINA RESULT:      -6.4      0.000      0.000
REMARK  28 active torsions:
REMARK  status: ('A' for Active; 'I' for Inactive)
REMARK    1  A    between atoms: N_1  and  CA_2 
REMARK    2  A    between atoms: CA_2  and  CB_5 
REMARK    3  A    between atoms: CA_2  and  C_3 
REMARK       I    between atoms: C_3  and  N_14 
REMARK    4  A    between atoms: CB_5  and  CG_6 
REMARK    5  A    between atoms: CG_6  and  CD_7 
REMARK    6  A    between atoms: CD_7  and  CE_8 
REMARK    7  A    between atoms: CE_8  and  NZ_9 
REMARK    8  A    between atoms: N_14  and  CA_15 
REMARK    9  A    between atoms: CA_15  and  CB_18 
REMARK   10  A    between atoms: CA_15  and  C_16 
REMARK       I    between atoms: C_16  and  N_22 
REMARK   11  A    between atoms: CB_18  and  SG_19 
REMARK   12  A    between atoms: N_22  and  CA_23 
REMARK   13  A    between atoms: CA_23  and  CB_26 
REMARK   14  A    between atoms: CA_23  and  C_24 
REMARK       I    between atoms: C_24  and  N_34 
REMARK   15  A    between atoms: CB_26  and  CG_27 
REMARK   16  A    between atoms: N_34  and  CA_35 
REMARK   17  A    between atoms: CA_35  and  C_36 
REMARK       I    between atoms: C_36  and  N_45 
REMARK   18  A    between atoms: CA_39  and  N_45 
REMARK   19  A    between atoms: CA_39  and  CB_41 
REMARK   20  A    between atoms: CA_39  and  C_40 
REMARK       I    between atoms: C_40  and  N_61 
REMARK   21  A    between atoms: CB_41  and  OG1_47 
REMARK   22  A    between atoms: CA_48  and  CB_50 
REMARK   23  A    between atoms: CA_48  and  N_61 
REMARK   24  A    between atoms: CA_48  and  C_49 
REMARK       I    between atoms: C_49  and  N_70 
REMARK   25  A    between atoms: CB_50  and  CG_51 
REMARK   26  A    between atoms: CA_64  and  N_70 
REMARK   27  A    between atoms: CA_64  and  CB_66 
REMARK   28  A    between atoms: CA_64  and  C_65 
ROOT
ATOM      1  CA  GLY B   4       3.601  90.362  63.846  1.00  0.00     0.225 C 
ENDROOT
BRANCH   1   2
ATOM      2  N   GLY B   4       4.776  90.721  64.636  1.00  0.00    -0.351 N 
ATOM      3  H   GLY B   4       5.639  90.302  64.424  1.00  0.00     0.163 HD
ATOM      4  C   PHE B   3       4.713  91.600  65.635  1.00  0.00     0.241 C 
ATOM      5  O   PHE B   3       3.648  92.156  65.947  1.00  0.00    -0.271 OA
BRANCH   4   6
ATOM      6  CA  PHE B   3       5.979  91.885  66.408  1.00  0.00     0.180 C 
BRANCH   6   7
ATOM      7  CB  PHE B   3       6.526  93.281  65.980  1.00  0.00     0.073 C 
BRANCH   7   8
ATOM      8  CG  PHE B   3       7.714  93.281  65.004  1.00  0.00    -0.056 A 
ATOM      9  CD1 PHE B   3       8.959  93.754  65.432  1.00  0.00     0.007 A 
ATOM     10  CE1 PHE B   3      10.023  93.837  64.541  1.00  0.00     0.001 A 
ATOM     11  CZ  PHE B   3       9.853  93.431  63.219  1.00  0.00     0.000 A 
ATOM     12  CE2 PHE B   3       8.619  92.948  62.787  1.00  0.00     0.001 A 
ATOM     13  CD2 PHE B   3       7.550  92.875  63.678  1.00  0.00     0.007 A 
ENDBRANCH   7   8
ENDBRANCH   6   7
BRANCH   6  14
ATOM     14  N   PHE B   3       6.984  90.856  66.163  1.00  0.00    -0.346 N 
ATOM     15  C   CYS B   2       7.873  90.501  67.109  1.00  0.00     0.241 C 
ATOM     16  O   CYS B   2       7.894  91.021  68.221  1.00  0.00    -0.271 OA
ATOM     17  H   PHE B   3       7.014  90.415  65.291  1.00  0.00     0.163 HD
BRANCH  15  18
ATOM     18  CA  CYS B   2       8.827  89.391  66.733  1.00  0.00     0.185 C 
BRANCH  18  19
ATOM     19  N   CYS B   2      10.202  89.746  67.074  1.00  0.00    -0.345 N 
ATOM     20  C   LYS B   1      10.999  90.371  66.202  1.00  0.00     0.254 C 
ATOM     21  O   LYS B   1      10.635  90.633  65.051  1.00  0.00    -0.271 OA
ATOM     22  H   CYS B   2      10.550  89.519  67.965  1.00  0.00     0.163 HD
BRANCH  20  23
ATOM     23  CA  LYS B   1      12.393  90.697  66.686  1.00  0.00     0.350 C 
BRANCH  23  24
ATOM     24  N   LYS B   1      13.339  89.656  66.298  1.00  0.00     0.312 N 
ATOM     25  H   LYS B   1      12.807  88.766  66.044  1.00  0.00     0.359 HD
ENDBRANCH  23  24
BRANCH  23  26
ATOM     26  CB  LYS B   1      12.869  92.065  66.125  1.00  0.00     0.048 C 
BRANCH  26  27
ATOM     27  CG  LYS B   1      13.991  91.937  65.064  1.00  0.00     0.004 C 
BRANCH  27  28
ATOM     28  CD  LYS B   1      13.533  92.127  63.615  1.00  0.00     0.027 C 
BRANCH  28  29
ATOM     29  CE  LYS B   1      14.496  93.084  62.901  1.00  0.00     0.229 C 
BRANCH  29  30
ATOM     30  NZ  LYS B   1      15.508  92.304  62.167  1.00  0.00    -0.079 N 
ATOM     31  HZ3 LYS B   1      15.204  92.279  61.204  1.00  0.00     0.274 HD
ATOM     32  HZ2 LYS B   1      15.595  91.355  62.546  1.00  0.00     0.274 HD
ATOM     33  HZ1 LYS B   1      16.435  92.735  62.260  1.00  0.00     0.274 HD
ENDBRANCH  29  30
ENDBRANCH  28  29
ENDBRANCH  27  28
ENDBRANCH  26  27
ENDBRANCH  23  26
ENDBRANCH  20  23
ENDBRANCH  18  19
BRANCH  18  34
ATOM     34  CB  CYS B   2       8.480  88.058  67.424  1.00  0.00     0.105 C 
BRANCH  34  35
ATOM     35  SG  CYS B   2       8.934  86.656  66.376  1.00  0.00    -0.180 SA
ATOM     36  HG  CYS B   2      10.210  86.992  66.205  1.00  0.00     0.101 HD
ENDBRANCH  34  35
ENDBRANCH  18  34
ENDBRANCH  15  18
ENDBRANCH   6  14
ENDBRANCH   4   6
ENDBRANCH   1   2
BRANCH   1  37
ATOM     37  C   GLY B   4       3.207  88.925  64.085  1.00  0.00     0.236 C 
ATOM     38  O   GLY B   4       3.592  88.313  65.087  1.00  0.00    -0.272 OA
ATOM     39  N   THR B   5       2.432  88.359  63.158  1.00  7.70    -0.344 N 
ATOM     40  H   THR B   5       2.160  88.894  62.382  1.00  0.23     0.163 HD
BRANCH  39  41
ATOM     41  CA  THR B   5       1.979  86.975  63.259  1.00  7.88     0.205 C 
BRANCH  41  42
ATOM     42  CB  THR B   5       0.561  86.839  62.703  1.00  4.05     0.146 C 
ATOM     43  CG2 THR B   5       0.035  88.117  62.086  1.00  3.72     0.042 C 
BRANCH  42  44
ATOM     44  OG1 THR B   5       0.507  85.829  61.711  1.00  7.31    -0.393 OA
ATOM     45  HG1 THR B   5      -0.319  85.347  61.790  1.00  0.23     0.210 HD
ENDBRANCH  42  44
ENDBRANCH  41  42
BRANCH  41  46
ATOM     46  C   THR B   5       2.924  86.044  62.507  1.00  7.05     0.243 C 
ATOM     47  N   TRP B   6       3.577  86.574  61.478  1.00  0.00    -0.346 N 
ATOM     48  H   TRP B   6       3.430  87.516  61.252  1.00  0.23     0.163 HD
ATOM     49  O   THR B   5       3.056  84.869  62.849  1.00  6.06    -0.271 OA
BRANCH  47  50
ATOM     50  CA  TRP B   6       4.506  85.788  60.676  1.00  0.00     0.181 C 
BRANCH  50  51
ATOM     51  CB  TRP B   6       4.042  85.747  59.220  1.00  0.00     0.075 C 
BRANCH  51  52
ATOM     52  CG  TRP B   6       2.806  86.558  58.977  1.00  0.00    -0.028 A 
ATOM     53  CD2 TRP B   6       2.721  87.985  58.891  1.00  0.00    -0.002 A 
ATOM     54  CE2 TRP B   6       1.372  88.308  58.648  1.00  0.00     0.042 A 
ATOM     55  CE3 TRP B   6       3.653  89.020  58.998  1.00  0.00     0.014 A 
ATOM     56  CZ2 TRP B   6       0.936  89.623  58.508  1.00  0.00     0.030 A 
ATOM     57  NE1 TRP B   6       0.671  87.132  58.588  1.00  0.00    -0.365 N 
ATOM     58  CH2 TRP B   6       1.870  90.617  58.617  1.00  0.00     0.002 A 
ATOM     59  CZ3 TRP B   6       3.218  90.326  58.859  1.00  0.00     0.001 A 
ATOM     60  HE1 TRP B   6      -0.293  87.050  58.430  1.00  0.23     0.165 HD
ATOM     61  CD1 TRP B   6       1.540  86.086  58.787  1.00  0.00     0.096 A 
ENDBRANCH  51  52
ENDBRANCH  50  51
BRANCH  50  62
ATOM     62  C   TRP B   6       5.918  86.358  60.763  1.00  0.00     0.241 C 
ATOM     63  N   VAL B   7       6.038  87.534  61.371  1.00  6.11    -0.344 N 
ATOM     64  H   VAL B   7       5.237  87.970  61.728  1.00  0.23     0.163 HD
ATOM     65  O   TRP B   6       6.875  85.747  60.286  1.00  0.00    -0.271 OA
BRANCH  63  66
ATOM     66  CA  VAL B   7       7.330  88.192  61.519  1.00  5.65     0.189 C 
BRANCH  66  67
ATOM     67  CB  VAL B   7       7.414  89.458  60.644  1.00  1.15     0.010 C 
ATOM     68  CG1 VAL B   7       7.332  89.093  59.169  1.00  4.96     0.012 C 
ATOM     69  CG2 VAL B   7       6.317  90.444  61.018  1.00  9.83     0.012 C 
ENDBRANCH  66  67
BRANCH  66  70
ATOM     70  C   VAL B   7       7.591  88.572  62.974  1.00  4.44     0.197 C 
ATOM     71  OXT VAL B   7       6.658  88.453  63.793  1.00  0.00    -0.646 OA
ATOM     72  O   VAL B   7       8.729  88.986  63.279  1.00  0.00    -0.646 OA
ENDBRANCH  66  70
ENDBRANCH  63  66
ENDBRANCH  50  62
ENDBRANCH  47  50
ENDBRANCH  41  46
ENDBRANCH  39  41
ENDBRANCH   1  37
TORSDOF 28
ENDMDL
MODEL 2
REMARK VINA RESULT:      -6.3      2.714      7.147
REMARK  28 active torsions:
REMARK  status: ('A' for Active; 'I' for Inactive)
REMARK    1  A    between atoms: N_1  and  CA_2 
REMARK    2  A    between atoms: CA_2  and  CB_5 
REMARK    3  A    between atoms: CA_2  and  C_3 
REMARK       I    between atoms: C_3  and  N_14 
REMARK    4  A    between atoms: CB_5  and  CG_6 
REMARK    5  A    between atoms: CG_6  and  CD_7 
REMARK    6  A    between atoms: CD_7  and  CE_8 
REMARK    7  A    between atoms: CE_8  and  NZ_9 
REMARK    8  A    between atoms: N_14  and  CA_15 
REMARK    9  A    between atoms: CA_15  and  CB_18 
REMARK   10  A    between atoms: CA_15  and  C_16 
REMARK       I    between atoms: C_16  and  N_22 
REMARK   11  A    between atoms: CB_18  and  SG_19 
REMARK   12  A    between atoms: N_22  and  CA_23 
REMARK   13  A    between atoms: CA_23  and  CB_26 
REMARK   14  A    between atoms: CA_23  and  C_24 
REMARK       I    between atoms: C_24  and  N_34 
REMARK   15  A    between atoms: CB_26  and  CG_27 
REMARK   16  A    between atoms: N_34  and  CA_35 
REMARK   17  A    between atoms: CA_35  and  C_36 
REMARK       I    between atoms: C_36  and  N_45 
REMARK   18  A    between atoms: CA_39  and  N_45 
REMARK   19  A    between atoms: CA_39  and  CB_41 
REMARK   20  A    between atoms: CA_39  and  C_40 
REMARK       I    between atoms: C_40  and  N_61 
REMARK   21  A    between atoms: CB_41  and  OG1_47 
REMARK   22  A    between atoms: CA_48  and  CB_50 
REMARK   23  A    between atoms: CA_48  and  N_61 
REMARK   24  A    between atoms: CA_48  and  C_49 
REMARK       I    between atoms: C_49  and  N_70 
REMARK   25  A    between atoms: CB_50  and  CG_51 
REMARK   26  A    between atoms: CA_64  and  N_70 
REMARK   27  A    between atoms: CA_64  and  CB_66 
REMARK   28  A    between atoms: CA_64  and  C_65 
ROOT
ATOM      1  CA  GLY B   4       6.024  88.412  67.141  1.00  0.00     0.225 C 
ENDROOT
BRANCH   1   2
ATOM      2  N   GLY B   4       6.973  89.226  66.387  1.00  0.00    -0.351 N 
ATOM      3  H   GLY B   4       6.830  90.196  66.332  1.00  0.00     0.163 HD
ATOM      4  C   PHE B   3       8.027  88.692  65.772  1.00  0.00     0.241 C 
ATOM      5  O   PHE B   3       8.252  87.471  65.806  1.00  0.00    -0.271 OA
BRANCH   4   6
ATOM      6  CA  PHE B   3       8.937  89.615  64.996  1.00  0.00     0.180 C 
BRANCH   6   7
ATOM      7  CB  PHE B   3       9.764  90.468  66.004  1.00  0.00     0.073 C 
BRANCH   7   8
ATOM      8  CG  PHE B   3      11.264  90.621  65.702  1.00  0.00    -0.056 A 
ATOM      9  CD1 PHE B   3      12.137  91.018  66.722  1.00  0.00     0.007 A 
ATOM     10  CE1 PHE B   3      13.482  91.239  66.447  1.00  0.00     0.001 A 
ATOM     11  CZ  PHE B   3      13.967  91.048  65.155  1.00  0.00     0.000 A 
ATOM     12  CE2 PHE B   3      13.106  90.642  64.137  1.00  0.00     0.001 A 
ATOM     13  CD2 PHE B   3      11.756  90.431  64.409  1.00  0.00     0.007 A 
ENDBRANCH   7   8
ENDBRANCH   6   7
BRANCH   6  14
ATOM     14  N   PHE B   3       8.168  90.487  64.114  1.00  0.00    -0.346 N 
ATOM     15  C   CYS B   2       7.896  90.139  62.842  1.00  0.00     0.241 C 
ATOM     16  O   CYS B   2       8.280  89.080  62.354  1.00  0.00    -0.271 OA
ATOM     17  H   PHE B   3       7.843  91.344  64.453  1.00  0.00     0.163 HD
BRANCH  15  18
ATOM     18  CA  CYS B   2       7.053  91.117  62.057  1.00  0.00     0.185 C 
BRANCH  18  19
ATOM     19  N   CYS B   2       5.764  90.528  61.703  1.00  0.00    -0.345 N 
ATOM     20  C   LYS B   1       5.543  90.005  60.493  1.00  0.00     0.254 C 
ATOM     21  O   LYS B   1       6.394  90.039  59.598  1.00  0.00    -0.271 OA
ATOM     22  H   CYS B   2       5.042  90.516  62.370  1.00  0.00     0.163 HD
BRANCH  20  23
ATOM     23  CA  LYS B   1       4.173  89.411  60.262  1.00  0.00     0.350 C 
BRANCH  23  24
ATOM     24  N   LYS B   1       3.138  90.221  60.898  1.00  0.00     0.312 N 
ATOM     25  H   LYS B   1       2.540  89.604  61.531  1.00  0.00     0.359 HD
ENDBRANCH  23  24
BRANCH  23  26
ATOM     26  CB  LYS B   1       3.872  89.286  58.744  1.00  0.00     0.048 C 
BRANCH  26  27
ATOM     27  CG  LYS B   1       2.430  89.706  58.365  1.00  0.00     0.004 C 
BRANCH  27  28
ATOM     28  CD  LYS B   1       1.460  88.543  58.133  1.00  0.00     0.027 C 
BRANCH  28  29
ATOM     29  CE  LYS B   1       0.893  88.634  56.710  1.00  0.00     0.229 C 
BRANCH  29  30
ATOM     30  NZ  LYS B   1       1.283  87.435  55.949  1.00  0.00    -0.079 N 
ATOM     31  HZ3 LYS B   1       2.014  86.985  56.482  1.00  0.00     0.274 HD
ATOM     32  HZ2 LYS B   1       1.614  87.679  55.010  1.00  0.00     0.274 HD
ATOM     33  HZ1 LYS B   1       0.477  86.813  55.815  1.00  0.00     0.274 HD
ENDBRANCH  29  30
ENDBRANCH  28  29
ENDBRANCH  27  28
ENDBRANCH  26  27
ENDBRANCH  23  26
ENDBRANCH  20  23
ENDBRANCH  18  19
BRANCH  18  34
ATOM     34  CB  CYS B   2       6.797  92.426  62.829  1.00  0.00     0.105 C 
BRANCH  34  35
ATOM     35  SG  CYS B   2       5.808  93.570  61.839  1.00  0.00    -0.180 SA
ATOM     36  HG  CYS B   2       4.654  93.370  62.472  1.00  0.00     0.101 HD
ENDBRANCH  34  35
ENDBRANCH  18  34
ENDBRANCH  15  18
ENDBRANCH   6  14
ENDBRANCH   4   6
ENDBRANCH   1   2
BRANCH   1  37
ATOM     37  C   GLY B   4       4.603  88.825  66.846  1.00  0.00     0.236 C 
ATOM     38  O   GLY B   4       3.769  88.946  67.750  1.00  0.00    -0.272 OA
ATOM     39  N   THR B   5       4.301  89.043  65.563  1.00  7.70    -0.344 N 
ATOM     40  H   THR B   5       5.003  88.928  64.889  1.00  0.23     0.163 HD
BRANCH  39  41
ATOM     41  CA  THR B   5       2.964  89.444  65.134  1.00  7.88     0.205 C 
BRANCH  41  42
ATOM     42  CB  THR B   5       2.948  90.928  64.766  1.00  4.05     0.146 C 
ATOM     43  CG2 THR B   5       3.429  91.827  65.884  1.00  3.72     0.042 C 
BRANCH  42  44
ATOM     44  OG1 THR B   5       3.768  91.173  63.637  1.00  7.31    -0.393 OA
ATOM     45  HG1 THR B   5       3.789  92.115  63.455  1.00  0.23     0.210 HD
ENDBRANCH  42  44
ENDBRANCH  41  42
BRANCH  41  46
ATOM     46  C   THR B   5       2.510  88.607  63.942  1.00  7.05     0.243 C 
ATOM     47  N   TRP B   6       3.093  87.422  63.799  1.00  0.00    -0.346 N 
ATOM     48  H   TRP B   6       3.773  87.141  64.446  1.00  0.23     0.163 HD
ATOM     49  O   THR B   5       1.650  89.028  63.169  1.00  6.06    -0.271 OA
BRANCH  47  50
ATOM     50  CA  TRP B   6       2.749  86.530  62.699  1.00  0.00     0.181 C 
BRANCH  50  51
ATOM     51  CB  TRP B   6       4.001  85.814  62.188  1.00  0.00     0.075 C 
BRANCH  51  52
ATOM     52  CG  TRP B   6       4.095  85.797  60.693  1.00  0.00    -0.028 A 
ATOM     53  CD2 TRP B   6       5.295  85.774  59.911  1.00  0.00    -0.002 A 
ATOM     54  CE2 TRP B   6       4.909  85.756  58.557  1.00  0.00     0.042 A 
ATOM     55  CE3 TRP B   6       6.657  85.768  60.224  1.00  0.00     0.014 A 
ATOM     56  CZ2 TRP B   6       5.837  85.731  57.520  1.00  0.00     0.030 A 
ATOM     57  NE1 TRP B   6       3.539  85.767  58.519  1.00  0.00    -0.365 N 
ATOM     58  CH2 TRP B   6       7.164  85.726  57.854  1.00  0.00     0.002 A 
ATOM     59  CZ3 TRP B   6       7.577  85.744  59.191  1.00  0.00     0.001 A 
ATOM     60  HE1 TRP B   6       2.991  85.758  57.706  1.00  0.23     0.165 HD
ATOM     61  CD1 TRP B   6       3.058  85.791  59.806  1.00  0.00     0.096 A 
ENDBRANCH  51  52
ENDBRANCH  50  51
BRANCH  50  62
ATOM     62  C   TRP B   6       1.700  85.511  63.131  1.00  0.00     0.241 C 
ATOM     63  N   VAL B   7       2.161  84.409  63.715  1.00  6.11    -0.344 N 
ATOM     64  H   VAL B   7       3.127  84.304  63.840  1.00  0.23     0.163 HD
ATOM     65  O   TRP B   6       0.502  85.717  62.935  1.00  0.00    -0.271 OA
BRANCH  63  66
ATOM     66  CA  VAL B   7       1.267  83.354  64.173  1.00  5.65     0.189 C 
BRANCH  66  67
ATOM     67  CB  VAL B   7       1.786  81.964  63.755  1.00  1.15     0.010 C 
ATOM     68  CG1 VAL B   7       0.949  81.402  62.615  1.00  4.96     0.012 C 
ATOM     69  CG2 VAL B   7       3.254  82.033  63.364  1.00  9.83     0.012 C 
ENDBRANCH  66  67
BRANCH  66  70
ATOM     70  C   VAL B   7       1.103  83.390  65.690  1.00  4.44     0.197 C 
ATOM     71  OXT VAL B   7       1.437  82.382  66.345  1.00  0.00    -0.646 OA
ATOM     72  O   VAL B   7       0.642  84.429  66.208  1.00  0.00    -0.646 OA
ENDBRANCH  66  70
ENDBRANCH  63  66
ENDBRANCH  50  62
ENDBRANCH  47  50
ENDBRANCH  41  46
ENDBRANCH  39  41
ENDBRANCH   1  37
TORSDOF 28
ENDMDL
MODEL 3
REMARK VINA RESULT:      -6.0      2.738      6.679
REMARK  28 active torsions:
REMARK  status: ('A' for Active; 'I' for Inactive)
REMARK    1  A    between atoms: N_1  and  CA_2 
REMARK    2  A    between atoms: CA_2  and  CB_5 
REMARK    3  A    between atoms: CA_2  and  C_3 
REMARK       I    between atoms: C_3  and  N_14 
REMARK    4  A    between atoms: CB_5  and  CG_6 
REMARK    5  A    between atoms: CG_6  and  CD_7 
REMARK    6  A    between atoms: CD_7  and  CE_8 
REMARK    7  A    between atoms: CE_8  and  NZ_9 
REMARK    8  A    between atoms: N_14  and  CA_15 
REMARK    9  A    between atoms: CA_15  and  CB_18 
REMARK   10  A    between atoms: CA_15  and  C_16 
REMARK       I    between atoms: C_16  and  N_22 
REMARK   11  A    between atoms: CB_18  and  SG_19 
REMARK   12  A    between atoms: N_22  and  CA_23 
REMARK   13  A    between atoms: CA_23  and  CB_26 
REMARK   14  A    between atoms: CA_23  and  C_24 
REMARK       I    between atoms: C_24  and  N_34 
REMARK   15  A    between atoms: CB_26  and  CG_27 
REMARK   16  A    between atoms: N_34  and  CA_35 
REMARK   17  A    between atoms: CA_35  and  C_36 
REMARK       I    between atoms: C_36  and  N_45 
REMARK   18  A    between atoms: CA_39  and  N_45 
REMARK   19  A    between atoms: CA_39  and  CB_41 
REMARK   20  A    between atoms: CA_39  and  C_40 
REMARK       I    between atoms: C_40  and  N_61 
REMARK   21  A    between atoms: CB_41  and  OG1_47 
REMARK   22  A    between atoms: CA_48  and  CB_50 
REMARK   23  A    between atoms: CA_48  and  N_61 
REMARK   24  A    between atoms: CA_48  and  C_49 
REMARK       I    between atoms: C_49  and  N_70 
REMARK   25  A    between atoms: CB_50  and  CG_51 
REMARK   26  A    between atoms: CA_64  and  N_70 
REMARK   27  A    between atoms: CA_64  and  CB_66 
REMARK   28  A    between atoms: CA_64  and  C_65 
ROOT
ATOM      1  CA  GLY B   4       5.694  88.250  67.462  1.00  0.00     0.225 C 
ENDROOT
BRANCH   1   2
ATOM      2  N   GLY B   4       6.891  89.083  67.524  1.00  0.00    -0.351 N 
ATOM      3  H   GLY B   4       7.024  89.669  68.300  1.00  0.00     0.163 HD
ATOM      4  C   PHE B   3       7.810  89.070  66.560  1.00  0.00     0.241 C 
ATOM      5  O   PHE B   3       7.690  88.351  65.554  1.00  0.00    -0.271 OA
BRANCH   4   6
ATOM      6  CA  PHE B   3       9.002  89.987  66.704  1.00  0.00     0.180 C 
BRANCH   6   7
ATOM      7  CB  PHE B   3       9.043  90.531  68.164  1.00  0.00     0.073 C 
BRANCH   7   8
ATOM      8  CG  PHE B   3       9.444  89.528  69.258  1.00  0.00    -0.056 A 
ATOM      9  CD1 PHE B   3      10.129  88.360  68.906  1.00  0.00     0.007 A 
ATOM     10  CE1 PHE B   3      10.428  87.405  69.872  1.00  0.00     0.001 A 
ATOM     11  CZ  PHE B   3      10.059  87.619  71.198  1.00  0.00     0.000 A 
ATOM     12  CE2 PHE B   3       9.387  88.786  71.558  1.00  0.00     0.001 A 
ATOM     13  CD2 PHE B   3       9.078  89.738  70.589  1.00  0.00     0.007 A 
ENDBRANCH   7   8
ENDBRANCH   6   7
BRANCH   6  14
ATOM     14  N   PHE B   3       8.927  91.095  65.758  1.00  0.00    -0.346 N 
ATOM     15  C   CYS B   2       9.630  91.090  64.610  1.00  0.00     0.241 C 
ATOM     16  O   CYS B   2      10.373  90.164  64.298  1.00  0.00    -0.271 OA
ATOM     17  H   PHE B   3       8.353  91.859  65.961  1.00  0.00     0.163 HD
BRANCH  15  18
ATOM     18  CA  CYS B   2       9.422  92.282  63.704  1.00  0.00     0.185 C 
BRANCH  18  19
ATOM     19  N   CYS B   2       8.078  92.274  63.132  1.00  0.00    -0.345 N 
ATOM     20  C   LYS B   1       7.763  93.029  62.075  1.00  0.00     0.254 C 
ATOM     21  O   LYS B   1       8.573  93.808  61.561  1.00  0.00    -0.271 OA
ATOM     22  H   CYS B   2       7.388  91.701  63.535  1.00  0.00     0.163 HD
BRANCH  20  23
ATOM     23  CA  LYS B   1       6.344  92.914  61.571  1.00  0.00     0.350 C 
BRANCH  23  24
ATOM     24  N   LYS B   1       5.910  94.159  60.944  1.00  0.00     0.312 N 
ATOM     25  H   LYS B   1       4.860  94.116  60.752  1.00  0.00     0.359 HD
ENDBRANCH  23  24
BRANCH  23  26
ATOM     26  CB  LYS B   1       6.209  91.748  60.554  1.00  0.00     0.048 C 
BRANCH  26  27
ATOM     27  CG  LYS B   1       4.822  91.059  60.589  1.00  0.00     0.004 C 
BRANCH  27  28
ATOM     28  CD  LYS B   1       4.181  90.832  59.216  1.00  0.00     0.027 C 
BRANCH  28  29
ATOM     29  CE  LYS B   1       3.177  89.676  59.312  1.00  0.00     0.229 C 
BRANCH  29  30
ATOM     30  NZ  LYS B   1       2.845  89.203  57.957  1.00  0.00    -0.079 N 
ATOM     31  HZ3 LYS B   1       3.460  88.424  57.769  1.00  0.00     0.274 HD
ATOM     32  HZ2 LYS B   1       2.971  89.944  57.261  1.00  0.00     0.274 HD
ATOM     33  HZ1 LYS B   1       1.857  88.925  57.902  1.00  0.00     0.274 HD
ENDBRANCH  29  30
ENDBRANCH  28  29
ENDBRANCH  27  28
ENDBRANCH  26  27
ENDBRANCH  23  26
ENDBRANCH  20  23
ENDBRANCH  18  19
BRANCH  18  34
ATOM     34  CB  CYS B   2       9.636  93.621  64.434  1.00  0.00     0.105 C 
BRANCH  34  35
ATOM     35  SG  CYS B   2      11.391  93.893  64.771  1.00  0.00    -0.180 SA
ATOM     36  HG  CYS B   2      11.862  93.118  63.798  1.00  0.00     0.101 HD
ENDBRANCH  34  35
ENDBRANCH  18  34
ENDBRANCH  15  18
ENDBRANCH   6  14
ENDBRANCH   4   6
ENDBRANCH   1   2
BRANCH   1  37
ATOM     37  C   GLY B   4       4.536  89.011  66.864  1.00  0.00     0.236 C 
ATOM     38  O   GLY B   4       3.647  89.489  67.577  1.00  0.00    -0.272 OA
ATOM     39  N   THR B   5       4.526  89.130  65.534  1.00  7.70    -0.344 N 
ATOM     40  H   THR B   5       5.257  88.727  65.021  1.00  0.23     0.163 HD
BRANCH  39  41
ATOM     41  CA  THR B   5       3.465  89.837  64.823  1.00  7.88     0.205 C 
BRANCH  41  42
ATOM     42  CB  THR B   5       3.958  91.209  64.362  1.00  4.05     0.146 C 
ATOM     43  CG2 THR B   5       3.667  92.314  65.354  1.00  3.72     0.042 C 
BRANCH  42  44
ATOM     44  OG1 THR B   5       5.357  91.190  64.140  1.00  7.31    -0.393 OA
ATOM     45  HG1 THR B   5       5.610  91.959  63.625  1.00  0.23     0.210 HD
ENDBRANCH  42  44
ENDBRANCH  41  42
BRANCH  41  46
ATOM     46  C   THR B   5       2.989  89.025  63.623  1.00  7.05     0.243 C 
ATOM     47  N   TRP B   6       3.380  87.756  63.579  1.00  0.00    -0.346 N 
ATOM     48  H   TRP B   6       3.942  87.403  64.301  1.00  0.23     0.163 HD
ATOM     49  O   THR B   5       2.285  89.538  62.754  1.00  6.06    -0.271 OA
BRANCH  47  50
ATOM     50  CA  TRP B   6       2.995  86.876  62.483  1.00  0.00     0.181 C 
BRANCH  50  51
ATOM     51  CB  TRP B   6       4.189  86.026  62.045  1.00  0.00     0.075 C 
BRANCH  51  52
ATOM     52  CG  TRP B   6       4.678  86.370  60.672  1.00  0.00    -0.028 A 
ATOM     53  CD2 TRP B   6       5.839  87.143  60.345  1.00  0.00    -0.002 A 
ATOM     54  CE2 TRP B   6       5.916  87.206  58.941  1.00  0.00     0.042 A 
ATOM     55  CE3 TRP B   6       6.819  87.789  61.103  1.00  0.00     0.014 A 
ATOM     56  CZ2 TRP B   6       6.935  87.888  58.282  1.00  0.00     0.030 A 
ATOM     57  NE1 TRP B   6       4.852  86.503  58.438  1.00  0.00    -0.365 N 
ATOM     58  CH2 TRP B   6       7.882  88.512  59.048  1.00  0.00     0.002 A 
ATOM     59  CZ3 TRP B   6       7.831  88.467  60.446  1.00  0.00     0.001 A 
ATOM     60  HE1 TRP B   6       4.650  86.376  57.487  1.00  0.23     0.165 HD
ATOM     61  CD1 TRP B   6       4.114  86.005  59.484  1.00  0.00     0.096 A 
ENDBRANCH  51  52
ENDBRANCH  50  51
BRANCH  50  62
ATOM     62  C   TRP B   6       1.831  85.978  62.888  1.00  0.00     0.241 C 
ATOM     63  N   VAL B   7       2.155  84.809  63.433  1.00  6.11    -0.344 N 
ATOM     64  H   VAL B   7       3.101  84.584  63.549  1.00  0.23     0.163 HD
ATOM     65  O   TRP B   6       0.666  86.335  62.706  1.00  0.00    -0.271 OA
BRANCH  63  66
ATOM     66  CA  VAL B   7       1.140  83.856  63.861  1.00  5.65     0.189 C 
BRANCH  66  67
ATOM     67  CB  VAL B   7       1.297  82.509  63.129  1.00  1.15     0.010 C 
ATOM     68  CG1 VAL B   7       0.833  82.629  61.684  1.00  4.96     0.012 C 
ATOM     69  CG2 VAL B   7       2.738  82.025  63.195  1.00  9.83     0.012 C 
ENDBRANCH  66  67
BRANCH  66  70
ATOM     70  C   VAL B   7       1.209  83.616  65.366  1.00  4.44     0.197 C 
ATOM     71  OXT VAL B   7       2.085  84.216  66.022  1.00  0.00    -0.646 OA
ATOM     72  O   VAL B   7       0.383  82.830  65.876  1.00  0.00    -0.646 OA
ENDBRANCH  66  70
ENDBRANCH  63  66
ENDBRANCH  50  62
ENDBRANCH  47  50
ENDBRANCH  41  46
ENDBRANCH  39  41
ENDBRANCH   1  37
TORSDOF 28
ENDMDL
MODEL 4
REMARK VINA RESULT:      -5.9      2.765      5.331
REMARK  28 active torsions:
REMARK  status: ('A' for Active; 'I' for Inactive)
REMARK    1  A    between atoms: N_1  and  CA_2 
REMARK    2  A    between atoms: CA_2  and  CB_5 
REMARK    3  A    between atoms: CA_2  and  C_3 
REMARK       I    between atoms: C_3  and  N_14 
REMARK    4  A    between atoms: CB_5  and  CG_6 
REMARK    5  A    between atoms: CG_6  and  CD_7 
REMARK    6  A    between atoms: CD_7  and  CE_8 
REMARK    7  A    between atoms: CE_8  and  NZ_9 
REMARK    8  A    between atoms: N_14  and  CA_15 
REMARK    9  A    between atoms: CA_15  and  CB_18 
REMARK   10  A    between atoms: CA_15  and  C_16 
REMARK       I    between atoms: C_16  and  N_22 
REMARK   11  A    between atoms: CB_18  and  SG_19 
REMARK   12  A    between atoms: N_22  and  CA_23 
REMARK   13  A    between atoms: CA_23  and  CB_26 
REMARK   14  A    between atoms: CA_23  and  C_24 
REMARK       I    between atoms: C_24  and  N_34 
REMARK   15  A    between atoms: CB_26  and  CG_27 
REMARK   16  A    between atoms: N_34  and  CA_35 
REMARK   17  A    between atoms: CA_35  and  C_36 
REMARK       I    between atoms: C_36  and  N_45 
REMARK   18  A    between atoms: CA_39  and  N_45 
REMARK   19  A    between atoms: CA_39  and  CB_41 
REMARK   20  A    between atoms: CA_39  and  C_40 
REMARK       I    between atoms: C_40  and  N_61 
REMARK   21  A    between atoms: CB_41  and  OG1_47 
REMARK   22  A    between atoms: CA_48  and  CB_50 
REMARK   23  A    between atoms: CA_48  and  N_61 
REMARK   24  A    between atoms: CA_48  and  C_49 
REMARK       I    between atoms: C_49  and  N_70 
REMARK   25  A    between atoms: CB_50  and  CG_51 
REMARK   26  A    between atoms: CA_64  and  N_70 
REMARK   27  A    between atoms: CA_64  and  CB_66 
REMARK   28  A    between atoms: CA_64  and  C_65 
ROOT
ATOM      1  CA  GLY B   4       4.315  88.596  66.567  1.00  0.00     0.225 C 
ENDROOT
BRANCH   1   2
ATOM      2  N   GLY B   4       5.504  89.408  66.809  1.00  0.00    -0.351 N 
ATOM      3  H   GLY B   4       5.516  90.018  67.578  1.00  0.00     0.163 HD
ATOM      4  C   PHE B   3       6.574  89.346  66.018  1.00  0.00     0.241 C 
ATOM      5  O   PHE B   3       6.611  88.595  65.030  1.00  0.00    -0.271 OA
BRANCH   4   6
ATOM      6  CA  PHE B   3       7.745  90.244  66.338  1.00  0.00     0.180 C 
BRANCH   6   7
ATOM      7  CB  PHE B   3       7.731  90.563  67.863  1.00  0.00     0.073 C 
BRANCH   7   8
ATOM      8  CG  PHE B   3       8.582  89.650  68.762  1.00  0.00    -0.056 A 
ATOM      9  CD1 PHE B   3       8.557  89.829  70.150  1.00  0.00     0.007 A 
ATOM     10  CE1 PHE B   3       9.380  89.066  70.970  1.00  0.00     0.001 A 
ATOM     11  CZ  PHE B   3      10.222  88.108  70.410  1.00  0.00     0.000 A 
ATOM     12  CE2 PHE B   3      10.244  87.915  69.030  1.00  0.00     0.001 A 
ATOM     13  CD2 PHE B   3       9.427  88.687  68.207  1.00  0.00     0.007 A 
ENDBRANCH   7   8
ENDBRANCH   6   7
BRANCH   6  14
ATOM     14  N   PHE B   3       7.681  91.481  65.567  1.00  0.00    -0.346 N 
ATOM     15  C   CYS B   2       8.318  91.610  64.388  1.00  0.00     0.241 C 
ATOM     16  O   CYS B   2       8.989  90.705  63.901  1.00  0.00    -0.271 OA
ATOM     17  H   PHE B   3       7.163  92.234  65.913  1.00  0.00     0.163 HD
BRANCH  15  18
ATOM     18  CA  CYS B   2       8.128  92.930  63.676  1.00  0.00     0.185 C 
BRANCH  18  19
ATOM     19  N   CYS B   2       9.379  93.385  63.076  1.00  0.00    -0.345 N 
ATOM     20  C   LYS B   1      10.241  94.149  63.752  1.00  0.00     0.254 C 
ATOM     21  O   LYS B   1      10.005  94.552  64.895  1.00  0.00    -0.271 OA
ATOM     22  H   CYS B   2       9.591  93.123  62.152  1.00  0.00     0.163 HD
BRANCH  20  23
ATOM     23  CA  LYS B   1      11.506  94.535  63.021  1.00  0.00     0.350 C 
BRANCH  23  24
ATOM     24  N   LYS B   1      11.338  95.803  62.318  1.00  0.00     0.312 N 
ATOM     25  H   LYS B   1      10.498  96.326  62.720  1.00  0.00     0.359 HD
ENDBRANCH  23  24
BRANCH  23  26
ATOM     26  CB  LYS B   1      12.704  94.643  64.004  1.00  0.00     0.048 C 
BRANCH  26  27
ATOM     27  CG  LYS B   1      13.941  95.347  63.393  1.00  0.00     0.004 C 
BRANCH  27  28
ATOM     28  CD  LYS B   1      15.133  94.427  63.114  1.00  0.00     0.027 C 
BRANCH  28  29
ATOM     29  CE  LYS B   1      14.619  93.041  62.705  1.00  0.00     0.229 C 
BRANCH  29  30
ATOM     30  NZ  LYS B   1      15.739  92.235  62.190  1.00  0.00    -0.079 N 
ATOM     31  HZ3 LYS B   1      15.428  91.274  62.206  1.00  0.00     0.274 HD
ATOM     32  HZ2 LYS B   1      16.581  92.356  62.763  1.00  0.00     0.274 HD
ATOM     33  HZ1 LYS B   1      15.994  92.533  61.241  1.00  0.00     0.274 HD
ENDBRANCH  29  30
ENDBRANCH  28  29
ENDBRANCH  27  28
ENDBRANCH  26  27
ENDBRANCH  23  26
ENDBRANCH  20  23
ENDBRANCH  18  19
BRANCH  18  34
ATOM     34  CB  CYS B   2       7.054  92.854  62.574  1.00  0.00     0.105 C 
BRANCH  34  35
ATOM     35  SG  CYS B   2       5.453  93.412  63.201  1.00  0.00    -0.180 SA
ATOM     36  HG  CYS B   2       5.025  93.970  62.071  1.00  0.00     0.101 HD
ENDBRANCH  34  35
ENDBRANCH  18  34
ENDBRANCH  15  18
ENDBRANCH   6  14
ENDBRANCH   4   6
ENDBRANCH   1   2
BRANCH   1  37
ATOM     37  C   GLY B   4       3.377  89.284  65.605  1.00  0.00     0.236 C 
ATOM     38  O   GLY B   4       2.603  90.168  65.987  1.00  0.00    -0.272 OA
ATOM     39  N   THR B   5       3.427  88.880  64.333  1.00  7.70    -0.344 N 
ATOM     40  H   THR B   5       4.060  88.171  64.090  1.00  0.23     0.163 HD
BRANCH  39  41
ATOM     41  CA  THR B   5       2.574  89.455  63.298  1.00  7.88     0.205 C 
BRANCH  41  42
ATOM     42  CB  THR B   5       3.426  90.136  62.226  1.00  4.05     0.146 C 
ATOM     43  CG2 THR B   5       4.819  89.556  62.112  1.00  3.72     0.042 C 
BRANCH  42  44
ATOM     44  OG1 THR B   5       2.811  90.029  60.954  1.00  7.31    -0.393 OA
ATOM     45  HG1 THR B   5       2.865  90.872  60.500  1.00  0.23     0.210 HD
ENDBRANCH  42  44
ENDBRANCH  41  42
BRANCH  41  46
ATOM     46  C   THR B   5       1.701  88.379  62.662  1.00  7.05     0.243 C 
ATOM     47  N   TRP B   6       2.297  87.224  62.387  1.00  0.00    -0.346 N 
ATOM     48  H   TRP B   6       3.247  87.113  62.599  1.00  0.23     0.163 HD
ATOM     49  O   THR B   5       0.512  88.592  62.423  1.00  6.06    -0.271 OA
BRANCH  47  50
ATOM     50  CA  TRP B   6       1.573  86.117  61.775  1.00  0.00     0.181 C 
BRANCH  50  51
ATOM     51  CB  TRP B   6       2.433  85.455  60.698  1.00  0.00     0.075 C 
BRANCH  51  52
ATOM     52  CG  TRP B   6       3.261  86.436  59.927  1.00  0.00    -0.028 A 
ATOM     53  CD2 TRP B   6       4.691  86.483  59.858  1.00  0.00    -0.002 A 
ATOM     54  CE2 TRP B   6       5.033  87.558  59.016  1.00  0.00     0.042 A 
ATOM     55  CE3 TRP B   6       5.715  85.721  60.428  1.00  0.00     0.014 A 
ATOM     56  CZ2 TRP B   6       6.355  87.887  58.730  1.00  0.00     0.030 A 
ATOM     57  NE1 TRP B   6       3.865  88.137  58.592  1.00  0.00    -0.365 N 
ATOM     58  CH2 TRP B   6       7.338  87.126  59.301  1.00  0.00     0.002 A 
ATOM     59  CZ3 TRP B   6       7.028  86.050  60.142  1.00  0.00     0.001 A 
ATOM     60  HE1 TRP B   6       3.796  88.910  57.994  1.00  0.23     0.165 HD
ATOM     61  CD1 TRP B   6       2.806  87.457  59.144  1.00  0.00     0.096 A 
ENDBRANCH  51  52
ENDBRANCH  50  51
BRANCH  50  62
ATOM     62  C   TRP B   6       1.159  85.089  62.824  1.00  0.00     0.241 C 
ATOM     63  N   VAL B   7       2.133  84.321  63.305  1.00  6.11    -0.344 N 
ATOM     64  H   VAL B   7       3.046  84.446  62.975  1.00  0.23     0.163 HD
ATOM     65  O   TRP B   6      -0.014  84.993  63.185  1.00  0.00    -0.271 OA
BRANCH  63  66
ATOM     66  CA  VAL B   7       1.874  83.297  64.309  1.00  5.65     0.189 C 
BRANCH  66  67
ATOM     67  CB  VAL B   7       2.949  82.193  64.269  1.00  1.15     0.010 C 
ATOM     68  CG1 VAL B   7       2.312  80.838  64.000  1.00  4.96     0.012 C 
ATOM     69  CG2 VAL B   7       4.006  82.510  63.221  1.00  9.83     0.012 C 
ENDBRANCH  66  67
BRANCH  66  70
ATOM     70  C   VAL B   7       1.830  83.899  65.711  1.00  4.44     0.197 C 
ATOM     71  OXT VAL B   7       1.246  83.261  66.610  1.00  0.00    -0.646 OA
ATOM     72  O   VAL B   7       2.381  85.004  65.895  1.00  0.00    -0.646 OA
ENDBRANCH  66  70
ENDBRANCH  63  66
ENDBRANCH  50  62
ENDBRANCH  47  50
ENDBRANCH  41  46
ENDBRANCH  39  41
ENDBRANCH   1  37
TORSDOF 28
ENDMDL
MODEL 5
REMARK VINA RESULT:      -5.3      2.552      5.612
REMARK  28 active torsions:
REMARK  status: ('A' for Active; 'I' for Inactive)
REMARK    1  A    between atoms: N_1  and  CA_2 
REMARK    2  A    between atoms: CA_2  and  CB_5 
REMARK    3  A    between atoms: CA_2  and  C_3 
REMARK       I    between atoms: C_3  and  N_14 
REMARK    4  A    between atoms: CB_5  and  CG_6 
REMARK    5  A    between atoms: CG_6  and  CD_7 
REMARK    6  A    between atoms: CD_7  and  CE_8 
REMARK    7  A    between atoms: CE_8  and  NZ_9 
REMARK    8  A    between atoms: N_14  and  CA_15 
REMARK    9  A    between atoms: CA_15  and  CB_18 
REMARK   10  A    between atoms: CA_15  and  C_16 
REMARK       I    between atoms: C_16  and  N_22 
REMARK   11  A    between atoms: CB_18  and  SG_19 
REMARK   12  A    between atoms: N_22  and  CA_23 
REMARK   13  A    between atoms: CA_23  and  CB_26 
REMARK   14  A    between atoms: CA_23  and  C_24 
REMARK       I    between atoms: C_24  and  N_34 
REMARK   15  A    between atoms: CB_26  and  CG_27 
REMARK   16  A    between atoms: N_34  and  CA_35 
REMARK   17  A    between atoms: CA_35  and  C_36 
REMARK       I    between atoms: C_36  and  N_45 
REMARK   18  A    between atoms: CA_39  and  N_45 
REMARK   19  A    between atoms: CA_39  and  CB_41 
REMARK   20  A    between atoms: CA_39  and  C_40 
REMARK       I    between atoms: C_40  and  N_61 
REMARK   21  A    between atoms: CB_41  and  OG1_47 
REMARK   22  A    between atoms: CA_48  and  CB_50 
REMARK   23  A    between atoms: CA_48  and  N_61 
REMARK   24  A    between atoms: CA_48  and  C_49 
REMARK       I    between atoms: C_49  and  N_70 
REMARK   25  A    between atoms: CB_50  and  CG_51 
REMARK   26  A    between atoms: CA_64  and  N_70 
REMARK   27  A    between atoms: CA_64  and  CB_66 
REMARK   28  A    between atoms: CA_64  and  C_65 
ROOT
ATOM      1  CA  GLY B   4       8.291  88.054  62.722  1.00  0.00     0.225 C 
ENDROOT
BRANCH   1   2
ATOM      2  N   GLY B   4       8.522  88.842  63.930  1.00  0.00    -0.351 N 
ATOM      3  H   GLY B   4       8.407  89.816  63.892  1.00  0.00     0.163 HD
ATOM      4  C   PHE B   3       8.884  88.279  65.082  1.00  0.00     0.241 C 
ATOM      5  O   PHE B   3       9.048  87.052  65.184  1.00  0.00    -0.271 OA
BRANCH   4   6
ATOM      6  CA  PHE B   3       9.123  89.182  66.268  1.00  0.00     0.180 C 
BRANCH   6   7
ATOM      7  CB  PHE B   3       8.210  88.721  67.443  1.00  0.00     0.073 C 
BRANCH   7   8
ATOM      8  CG  PHE B   3       8.876  87.862  68.531  1.00  0.00    -0.056 A 
ATOM      9  CD1 PHE B   3       9.781  88.453  69.420  1.00  0.00     0.007 A 
ATOM     10  CE1 PHE B   3      10.453  87.676  70.357  1.00  0.00     0.001 A 
ATOM     11  CZ  PHE B   3      10.211  86.306  70.424  1.00  0.00     0.000 A 
ATOM     12  CE2 PHE B   3       9.301  85.712  69.551  1.00  0.00     0.001 A 
ATOM     13  CD2 PHE B   3       8.637  86.488  68.604  1.00  0.00     0.007 A 
ENDBRANCH   7   8
ENDBRANCH   6   7
BRANCH   6  14
ATOM     14  N   PHE B   3       8.841  90.574  65.930  1.00  0.00    -0.346 N 
ATOM     15  C   CYS B   2       9.829  91.472  65.763  1.00  0.00     0.241 C 
ATOM     16  O   CYS B   2      11.014  91.178  65.889  1.00  0.00    -0.271 OA
ATOM     17  H   PHE B   3       7.913  90.861  65.823  1.00  0.00     0.163 HD
BRANCH  15  18
ATOM     18  CA  CYS B   2       9.394  92.866  65.371  1.00  0.00     0.185 C 
BRANCH  18  19
ATOM     19  N   CYS B   2      10.119  93.327  64.190  1.00  0.00    -0.345 N 
ATOM     20  C   LYS B   1      11.064  94.267  64.274  1.00  0.00     0.254 C 
ATOM     21  O   LYS B   1      11.337  94.831  65.339  1.00  0.00    -0.271 OA
ATOM     22  H   CYS B   2       9.906  92.937  63.313  1.00  0.00     0.163 HD
BRANCH  20  23
ATOM     23  CA  LYS B   1      11.751  94.641  62.981  1.00  0.00     0.350 C 
BRANCH  23  24
ATOM     24  N   LYS B   1      10.919  95.541  62.188  1.00  0.00     0.312 N 
ATOM     25  H   LYS B   1      11.410  95.763  61.267  1.00  0.00     0.359 HD
ENDBRANCH  23  24
BRANCH  23  26
ATOM     26  CB  LYS B   1      13.124  95.312  63.255  1.00  0.00     0.048 C 
BRANCH  26  27
ATOM     27  CG  LYS B   1      14.164  95.069  62.133  1.00  0.00     0.004 C 
BRANCH  27  28
ATOM     28  CD  LYS B   1      15.479  94.438  62.600  1.00  0.00     0.027 C 
BRANCH  28  29
ATOM     29  CE  LYS B   1      15.174  93.149  63.376  1.00  0.00     0.229 C 
BRANCH  29  30
ATOM     30  NZ  LYS B   1      14.657  92.129  62.447  1.00  0.00    -0.079 N 
ATOM     31  HZ3 LYS B   1      15.316  92.081  61.683  1.00  0.00     0.274 HD
ATOM     32  HZ2 LYS B   1      13.721  92.373  62.108  1.00  0.00     0.274 HD
ATOM     33  HZ1 LYS B   1      14.562  91.223  62.921  1.00  0.00     0.274 HD
ENDBRANCH  29  30
ENDBRANCH  28  29
ENDBRANCH  27  28
ENDBRANCH  26  27
ENDBRANCH  23  26
ENDBRANCH  20  23
ENDBRANCH  18  19
BRANCH  18  34
ATOM     34  CB  CYS B   2       7.882  92.951  65.082  1.00  0.00     0.105 C 
BRANCH  34  35
ATOM     35  SG  CYS B   2       7.568  92.912  63.303  1.00  0.00    -0.180 SA
ATOM     36  HG  CYS B   2       7.008  91.705  63.267  1.00  0.00     0.101 HD
ENDBRANCH  34  35
ENDBRANCH  18  34
ENDBRANCH  15  18
ENDBRANCH   6  14
ENDBRANCH   4   6
ENDBRANCH   1   2
BRANCH   1  37
ATOM     37  C   GLY B   4       7.179  88.649  61.893  1.00  0.00     0.236 C 
ATOM     38  O   GLY B   4       7.009  88.315  60.716  1.00  0.00    -0.272 OA
ATOM     39  N   THR B   5       6.404  89.551  62.498  1.00  7.70    -0.344 N 
ATOM     40  H   THR B   5       6.589  89.778  63.434  1.00  0.23     0.163 HD
BRANCH  39  41
ATOM     41  CA  THR B   5       5.294  90.209  61.815  1.00  7.88     0.205 C 
BRANCH  41  42
ATOM     42  CB  THR B   5       5.558  90.266  60.309  1.00  4.05     0.146 C 
ATOM     43  CG2 THR B   5       4.324  90.601  59.499  1.00  3.72     0.042 C 
BRANCH  42  44
ATOM     44  OG1 THR B   5       6.544  91.238  60.010  1.00  7.31    -0.393 OA
ATOM     45  HG1 THR B   5       6.443  91.527  59.100  1.00  0.23     0.210 HD
ENDBRANCH  42  44
ENDBRANCH  41  42
BRANCH  41  46
ATOM     46  C   THR B   5       3.985  89.476  62.087  1.00  7.05     0.243 C 
ATOM     47  N   TRP B   6       4.058  88.153  62.171  1.00  0.00    -0.346 N 
ATOM     48  H   TRP B   6       4.927  87.713  62.060  1.00  0.23     0.163 HD
ATOM     49  O   THR B   5       2.930  90.097  62.214  1.00  6.06    -0.271 OA
BRANCH  47  50
ATOM     50  CA  TRP B   6       2.877  87.337  62.424  1.00  0.00     0.181 C 
BRANCH  50  51
ATOM     51  CB  TRP B   6       3.065  85.939  61.833  1.00  0.00     0.075 C 
BRANCH  51  52
ATOM     52  CG  TRP B   6       3.560  85.964  60.419  1.00  0.00    -0.028 A 
ATOM     53  CD2 TRP B   6       4.873  85.611  59.965  1.00  0.00    -0.002 A 
ATOM     54  CE2 TRP B   6       4.888  85.777  58.567  1.00  0.00     0.042 A 
ATOM     55  CE3 TRP B   6       6.035  85.173  60.604  1.00  0.00     0.014 A 
ATOM     56  CZ2 TRP B   6       6.020  85.517  57.800  1.00  0.00     0.030 A 
ATOM     57  NE1 TRP B   6       3.643  86.210  58.189  1.00  0.00    -0.365 N 
ATOM     58  CH2 TRP B   6       7.145  85.090  58.451  1.00  0.00     0.002 A 
ATOM     59  CZ3 TRP B   6       7.159  84.916  59.840  1.00  0.00     0.001 A 
ATOM     60  HE1 TRP B   6       3.363  86.409  57.271  1.00  0.23     0.165 HD
ATOM     61  CD1 TRP B   6       2.853  86.320  59.308  1.00  0.00     0.096 A 
ENDBRANCH  51  52
ENDBRANCH  50  51
BRANCH  50  62
ATOM     62  C   TRP B   6       2.590  87.241  63.919  1.00  0.00     0.241 C 
ATOM     63  N   VAL B   7       3.152  88.173  64.683  1.00  6.11    -0.344 N 
ATOM     64  H   VAL B   7       3.709  88.861  64.264  1.00  0.23     0.163 HD
ATOM     65  O   TRP B   6       1.879  86.342  64.368  1.00  0.00    -0.271 OA
BRANCH  63  66
ATOM     66  CA  VAL B   7       2.962  88.196  66.127  1.00  5.65     0.189 C 
BRANCH  66  67
ATOM     67  CB  VAL B   7       4.240  88.664  66.850  1.00  1.15     0.010 C 
ATOM     68  CG1 VAL B   7       5.039  89.610  65.965  1.00  4.96     0.012 C 
ATOM     69  CG2 VAL B   7       3.896  89.328  68.175  1.00  9.83     0.012 C 
ENDBRANCH  66  67
BRANCH  66  70
ATOM     70  C   VAL B   7       1.805  89.113  66.516  1.00  4.44     0.197 C 
ATOM     71  OXT VAL B   7       0.987  88.705  67.366  1.00  0.00    -0.646 OA
ATOM     72  O   VAL B   7       1.729  90.231  65.966  1.00  0.00    -0.646 OA
ENDBRANCH  66  70
ENDBRANCH  63  66
ENDBRANCH  50  62
ENDBRANCH  47  50
ENDBRANCH  41  46
ENDBRANCH  39  41
ENDBRANCH   1  37
TORSDOF 28
ENDMDL
MODEL 6
REMARK VINA RESULT:      -5.2      2.259      6.123
REMARK  28 active torsions:
REMARK  status: ('A' for Active; 'I' for Inactive)
REMARK    1  A    between atoms: N_1  and  CA_2 
REMARK    2  A    between atoms: CA_2  and  CB_5 
REMARK    3  A    between atoms: CA_2  and  C_3 
REMARK       I    between atoms: C_3  and  N_14 
REMARK    4  A    between atoms: CB_5  and  CG_6 
REMARK    5  A    between atoms: CG_6  and  CD_7 
REMARK    6  A    between atoms: CD_7  and  CE_8 
REMARK    7  A    between atoms: CE_8  and  NZ_9 
REMARK    8  A    between atoms: N_14  and  CA_15 
REMARK    9  A    between atoms: CA_15  and  CB_18 
REMARK   10  A    between atoms: CA_15  and  C_16 
REMARK       I    between atoms: C_16  and  N_22 
REMARK   11  A    between atoms: CB_18  and  SG_19 
REMARK   12  A    between atoms: N_22  and  CA_23 
REMARK   13  A    between atoms: CA_23  and  CB_26 
REMARK   14  A    between atoms: CA_23  and  C_24 
REMARK       I    between atoms: C_24  and  N_34 
REMARK   15  A    between atoms: CB_26  and  CG_27 
REMARK   16  A    between atoms: N_34  and  CA_35 
REMARK   17  A    between atoms: CA_35  and  C_36 
REMARK       I    between atoms: C_36  and  N_45 
REMARK   18  A    between atoms: CA_39  and  N_45 
REMARK   19  A    between atoms: CA_39  and  CB_41 
REMARK   20  A    between atoms: CA_39  and  C_40 
REMARK       I    between atoms: C_40  and  N_61 
REMARK   21  A    between atoms: CB_41  and  OG1_47 
REMARK   22  A    between atoms: CA_48  and  CB_50 
REMARK   23  A    between atoms: CA_48  and  N_61 
REMARK   24  A    between atoms: CA_48  and  C_49 
REMARK       I    between atoms: C_49  and  N_70 
REMARK   25  A    between atoms: CB_50  and  CG_51 
REMARK   26  A    between atoms: CA_64  and  N_70 
REMARK   27  A    between atoms: CA_64  and  CB_66 
REMARK   28  A    between atoms: CA_64  and  C_65 
ROOT
ATOM      1  CA  GLY B   4       8.103  88.021  61.747  1.00  0.00     0.225 C 
ENDROOT
BRANCH   1   2
ATOM      2  N   GLY B   4       8.511  89.152  62.575  1.00  0.00    -0.351 N 
ATOM      3  H   GLY B   4       9.205  89.761  62.242  1.00  0.00     0.163 HD
ATOM      4  C   PHE B   3       7.970  89.382  63.771  1.00  0.00     0.241 C 
ATOM      5  O   PHE B   3       7.093  88.641  64.243  1.00  0.00    -0.271 OA
BRANCH   4   6
ATOM      6  CA  PHE B   3       8.478  90.563  64.562  1.00  0.00     0.180 C 
BRANCH   6   7
ATOM      7  CB  PHE B   3       8.889  91.694  63.571  1.00  0.00     0.073 C 
BRANCH   7   8
ATOM      8  CG  PHE B   3       9.983  92.661  64.050  1.00  0.00    -0.056 A 
ATOM      9  CD1 PHE B   3       9.629  93.786  64.804  1.00  0.00     0.007 A 
ATOM     10  CE1 PHE B   3      10.596  94.713  65.176  1.00  0.00     0.001 A 
ATOM     11  CZ  PHE B   3      11.926  94.513  64.812  1.00  0.00     0.000 A 
ATOM     12  CE2 PHE B   3      12.288  93.389  64.071  1.00  0.00     0.001 A 
ATOM     13  CD2 PHE B   3      11.318  92.466  63.689  1.00  0.00     0.007 A 
ENDBRANCH   7   8
ENDBRANCH   6   7
BRANCH   6  14
ATOM     14  N   PHE B   3       9.618  90.186  65.392  1.00  0.00    -0.346 N 
ATOM     15  C   CYS B   2       9.670  90.495  66.701  1.00  0.00     0.241 C 
ATOM     16  O   CYS B   2       8.772  91.112  67.267  1.00  0.00    -0.271 OA
ATOM     17  H   PHE B   3      10.362  89.697  64.988  1.00  0.00     0.163 HD
BRANCH  15  18
ATOM     18  CA  CYS B   2      10.889  90.002  67.447  1.00  0.00     0.185 C 
BRANCH  18  19
ATOM     19  N   CYS B   2      10.726  88.608  67.850  1.00  0.00    -0.345 N 
ATOM     20  C   LYS B   1      10.088  88.276  68.977  1.00  0.00     0.254 C 
ATOM     21  O   LYS B   1       9.651  89.127  69.759  1.00  0.00    -0.271 OA
ATOM     22  H   CYS B   2      11.094  87.897  67.280  1.00  0.00     0.163 HD
BRANCH  20  23
ATOM     23  CA  LYS B   1       9.973  86.798  69.269  1.00  0.00     0.350 C 
BRANCH  23  24
ATOM     24  N   LYS B   1      10.708  86.445  70.479  1.00  0.00     0.312 N 
ATOM     25  H   LYS B   1      11.658  86.035  70.214  1.00  0.00     0.359 HD
ENDBRANCH  23  24
BRANCH  23  26
ATOM     26  CB  LYS B   1       8.486  86.379  69.426  1.00  0.00     0.048 C 
BRANCH  26  27
ATOM     27  CG  LYS B   1       7.619  86.706  68.184  1.00  0.00     0.004 C 
BRANCH  27  28
ATOM     28  CD  LYS B   1       6.250  87.317  68.497  1.00  0.00     0.027 C 
BRANCH  28  29
ATOM     29  CE  LYS B   1       6.274  87.914  69.910  1.00  0.00     0.229 C 
BRANCH  29  30
ATOM     30  NZ  LYS B   1       6.634  89.341  69.833  1.00  0.00    -0.079 N 
ATOM     31  HZ3 LYS B   1       5.809  89.825  69.509  1.00  0.00     0.274 HD
ATOM     32  HZ2 LYS B   1       7.421  89.493  69.194  1.00  0.00     0.274 HD
ATOM     33  HZ1 LYS B   1       6.939  89.688  70.750  1.00  0.00     0.274 HD
ENDBRANCH  29  30
ENDBRANCH  28  29
ENDBRANCH  27  28
ENDBRANCH  26  27
ENDBRANCH  23  26
ENDBRANCH  20  23
ENDBRANCH  18  19
BRANCH  18  34
ATOM     34  CB  CYS B   2      12.178  90.123  66.613  1.00  0.00     0.105 C 
BRANCH  34  35
ATOM     35  SG  CYS B   2      13.130  91.576  67.112  1.00  0.00    -0.180 SA
ATOM     36  HG  CYS B   2      12.143  92.461  66.995  1.00  0.00     0.101 HD
ENDBRANCH  34  35
ENDBRANCH  18  34
ENDBRANCH  15  18
ENDBRANCH   6  14
ENDBRANCH   4   6
ENDBRANCH   1   2
BRANCH   1  37
ATOM     37  C   GLY B   4       6.720  88.236  61.182  1.00  0.00     0.236 C 
ATOM     38  O   GLY B   4       6.049  87.291  60.753  1.00  0.00    -0.272 OA
ATOM     39  N   THR B   5       6.272  89.494  61.168  1.00  7.70    -0.344 N 
ATOM     40  H   THR B   5       6.851  90.203  61.520  1.00  0.23     0.163 HD
BRANCH  39  41
ATOM     41  CA  THR B   5       4.955  89.847  60.647  1.00  7.88     0.205 C 
BRANCH  41  42
ATOM     42  CB  THR B   5       4.743  89.217  59.269  1.00  4.05     0.146 C 
ATOM     43  CG2 THR B   5       3.588  89.827  58.505  1.00  3.72     0.042 C 
BRANCH  42  44
ATOM     44  OG1 THR B   5       5.906  89.356  58.472  1.00  7.31    -0.393 OA
ATOM     45  HG1 THR B   5       5.692  89.157  57.557  1.00  0.23     0.210 HD
ENDBRANCH  42  44
ENDBRANCH  41  42
BRANCH  41  46
ATOM     46  C   THR B   5       3.858  89.388  61.603  1.00  7.05     0.243 C 
ATOM     47  N   TRP B   6       4.254  88.677  62.654  1.00  0.00    -0.346 N 
ATOM     48  H   TRP B   6       5.207  88.483  62.769  1.00  0.23     0.163 HD
ATOM     49  O   THR B   5       2.679  89.669  61.390  1.00  6.06    -0.271 OA
BRANCH  47  50
ATOM     50  CA  TRP B   6       3.303  88.177  63.638  1.00  0.00     0.181 C 
BRANCH  50  51
ATOM     51  CB  TRP B   6       2.686  89.341  64.415  1.00  0.00     0.075 C 
BRANCH  51  52
ATOM     52  CG  TRP B   6       3.664  90.020  65.324  1.00  0.00    -0.028 A 
ATOM     53  CD2 TRP B   6       4.395  91.221  65.051  1.00  0.00    -0.002 A 
ATOM     54  CE2 TRP B   6       5.185  91.494  66.183  1.00  0.00     0.042 A 
ATOM     55  CE3 TRP B   6       4.459  92.090  63.958  1.00  0.00     0.014 A 
ATOM     56  CZ2 TRP B   6       6.027  92.601  66.253  1.00  0.00     0.030 A 
ATOM     57  NE1 TRP B   6       4.945  90.506  67.102  1.00  0.00    -0.365 N 
ATOM     58  CH2 TRP B   6       6.071  93.436  65.170  1.00  0.00     0.002 A 
ATOM     59  CZ3 TRP B   6       5.296  93.190  64.030  1.00  0.00     0.001 A 
ATOM     60  HE1 TRP B   6       5.359  90.438  67.988  1.00  0.23     0.165 HD
ATOM     61  CD1 TRP B   6       4.030  89.625  66.578  1.00  0.00     0.096 A 
ENDBRANCH  51  52
ENDBRANCH  50  51
BRANCH  50  62
ATOM     62  C   TRP B   6       2.208  87.352  62.968  1.00  0.00     0.241 C 
ATOM     63  N   VAL B   7       2.613  86.475  62.056  1.00  6.11    -0.344 N 
ATOM     64  H   VAL B   7       3.570  86.397  61.860  1.00  0.23     0.163 HD
ATOM     65  O   TRP B   6       1.025  87.511  63.270  1.00  0.00    -0.271 OA
BRANCH  63  66
ATOM     66  CA  VAL B   7       1.670  85.626  61.338  1.00  5.65     0.189 C 
BRANCH  66  67
ATOM     67  CB  VAL B   7       1.753  85.863  59.817  1.00  1.15     0.010 C 
ATOM     68  CG1 VAL B   7       1.038  87.152  59.439  1.00  4.96     0.012 C 
ATOM     69  CG2 VAL B   7       3.202  85.894  59.355  1.00  9.83     0.012 C 
ENDBRANCH  66  67
BRANCH  66  70
ATOM     70  C   VAL B   7       1.928  84.150  61.627  1.00  4.44     0.197 C 
ATOM     71  OXT VAL B   7       1.082  83.316  61.246  1.00  0.00    -0.646 OA
ATOM     72  O   VAL B   7       2.976  83.842  62.232  1.00  0.00    -0.646 OA
ENDBRANCH  66  70
ENDBRANCH  63  66
ENDBRANCH  50  62
ENDBRANCH  47  50
ENDBRANCH  41  46
ENDBRANCH  39  41
ENDBRANCH   1  37
TORSDOF 28
ENDMDL
MODEL 7
REMARK VINA RESULT:      -4.9      2.498      5.366
REMARK  28 active torsions:
REMARK  status: ('A' for Active; 'I' for Inactive)
REMARK    1  A    between atoms: N_1  and  CA_2 
REMARK    2  A    between atoms: CA_2  and  CB_5 
REMARK    3  A    between atoms: CA_2  and  C_3 
REMARK       I    between atoms: C_3  and  N_14 
REMARK    4  A    between atoms: CB_5  and  CG_6 
REMARK    5  A    between atoms: CG_6  and  CD_7 
REMARK    6  A    between atoms: CD_7  and  CE_8 
REMARK    7  A    between atoms: CE_8  and  NZ_9 
REMARK    8  A    between atoms: N_14  and  CA_15 
REMARK    9  A    between atoms: CA_15  and  CB_18 
REMARK   10  A    between atoms: CA_15  and  C_16 
REMARK       I    between atoms: C_16  and  N_22 
REMARK   11  A    between atoms: CB_18  and  SG_19 
REMARK   12  A    between atoms: N_22  and  CA_23 
REMARK   13  A    between atoms: CA_23  and  CB_26 
REMARK   14  A    between atoms: CA_23  and  C_24 
REMARK       I    between atoms: C_24  and  N_34 
REMARK   15  A    between atoms: CB_26  and  CG_27 
REMARK   16  A    between atoms: N_34  and  CA_35 
REMARK   17  A    between atoms: CA_35  and  C_36 
REMARK       I    between atoms: C_36  and  N_45 
REMARK   18  A    between atoms: CA_39  and  N_45 
REMARK   19  A    between atoms: CA_39  and  CB_41 
REMARK   20  A    between atoms: CA_39  and  C_40 
REMARK       I    between atoms: C_40  and  N_61 
REMARK   21  A    between atoms: CB_41  and  OG1_47 
REMARK   22  A    between atoms: CA_48  and  CB_50 
REMARK   23  A    between atoms: CA_48  and  N_61 
REMARK   24  A    between atoms: CA_48  and  C_49 
REMARK       I    between atoms: C_49  and  N_70 
REMARK   25  A    between atoms: CB_50  and  CG_51 
REMARK   26  A    between atoms: CA_64  and  N_70 
REMARK   27  A    between atoms: CA_64  and  CB_66 
REMARK   28  A    between atoms: CA_64  and  C_65 
ROOT
ATOM      1  CA  GLY B   4       8.279  88.160  61.067  1.00  0.00     0.225 C 
ENDROOT
BRANCH   1   2
ATOM      2  N   GLY B   4       8.597  88.824  62.328  1.00  0.00    -0.351 N 
ATOM      3  H   GLY B   4       9.248  89.559  62.329  1.00  0.00     0.163 HD
ATOM      4  C   PHE B   3       8.029  88.463  63.478  1.00  0.00     0.241 C 
ATOM      5  O   PHE B   3       7.203  87.538  63.534  1.00  0.00    -0.271 OA
BRANCH   4   6
ATOM      6  CA  PHE B   3       8.443  89.195  64.732  1.00  0.00     0.180 C 
BRANCH   6   7
ATOM      7  CB  PHE B   3       7.556  88.703  65.916  1.00  0.00     0.073 C 
BRANCH   7   8
ATOM      8  CG  PHE B   3       8.287  88.005  67.075  1.00  0.00    -0.056 A 
ATOM      9  CD1 PHE B   3       8.763  88.765  68.149  1.00  0.00     0.007 A 
ATOM     10  CE1 PHE B   3       9.496  88.161  69.165  1.00  0.00     0.001 A 
ATOM     11  CZ  PHE B   3       9.743  86.790  69.122  1.00  0.00     0.000 A 
ATOM     12  CE2 PHE B   3       9.261  86.025  68.061  1.00  0.00     0.001 A 
ATOM     13  CD2 PHE B   3       8.537  86.631  67.038  1.00  0.00     0.007 A 
ENDBRANCH   7   8
ENDBRANCH   6   7
BRANCH   6  14
ATOM     14  N   PHE B   3       8.302  90.638  64.566  1.00  0.00    -0.346 N 
ATOM     15  C   CYS B   2       9.104  91.503  65.213  1.00  0.00     0.241 C 
ATOM     16  O   CYS B   2       9.990  91.133  65.978  1.00  0.00    -0.271 OA
ATOM     17  H   PHE B   3       7.608  90.985  63.972  1.00  0.00     0.163 HD
BRANCH  15  18
ATOM     18  CA  CYS B   2       8.876  92.967  64.913  1.00  0.00     0.185 C 
BRANCH  18  19
ATOM     19  N   CYS B   2       9.742  93.419  63.828  1.00  0.00    -0.345 N 
ATOM     20  C   LYS B   1      10.897  94.045  64.070  1.00  0.00     0.254 C 
ATOM     21  O   LYS B   1      11.267  94.320  65.217  1.00  0.00    -0.271 OA
ATOM     22  H   CYS B   2       9.469  93.259  62.897  1.00  0.00     0.163 HD
BRANCH  20  23
ATOM     23  CA  LYS B   1      11.708  94.443  62.859  1.00  0.00     0.350 C 
BRANCH  23  24
ATOM     24  N   LYS B   1      11.077  95.552  62.149  1.00  0.00     0.312 N 
ATOM     25  H   LYS B   1      11.164  96.444  62.729  1.00  0.00     0.359 HD
ENDBRANCH  23  24
BRANCH  23  26
ATOM     26  CB  LYS B   1      13.152  94.845  63.266  1.00  0.00     0.048 C 
BRANCH  26  27
ATOM     27  CG  LYS B   1      14.247  94.009  62.557  1.00  0.00     0.004 C 
BRANCH  27  28
ATOM     28  CD  LYS B   1      15.604  94.706  62.424  1.00  0.00     0.027 C 
BRANCH  28  29
ATOM     29  CE  LYS B   1      16.141  95.039  63.823  1.00  0.00     0.229 C 
BRANCH  29  30
ATOM     30  NZ  LYS B   1      16.358  96.492  63.931  1.00  0.00    -0.079 N 
ATOM     31  HZ3 LYS B   1      15.997  96.767  64.833  1.00  0.00     0.274 HD
ATOM     32  HZ2 LYS B   1      15.881  96.998  63.177  1.00  0.00     0.274 HD
ATOM     33  HZ1 LYS B   1      17.356  96.717  63.839  1.00  0.00     0.274 HD
ENDBRANCH  29  30
ENDBRANCH  28  29
ENDBRANCH  27  28
ENDBRANCH  26  27
ENDBRANCH  23  26
ENDBRANCH  20  23
ENDBRANCH  18  19
BRANCH  18  34
ATOM     34  CB  CYS B   2       7.414  93.267  64.530  1.00  0.00     0.105 C 
BRANCH  34  35
ATOM     35  SG  CYS B   2       6.329  93.108  65.967  1.00  0.00    -0.180 SA
ATOM     36  HG  CYS B   2       7.291  93.031  66.884  1.00  0.00     0.101 HD
ENDBRANCH  34  35
ENDBRANCH  18  34
ENDBRANCH  15  18
ENDBRANCH   6  14
ENDBRANCH   4   6
ENDBRANCH   1   2
BRANCH   1  37
ATOM     37  C   GLY B   4       6.904  88.549  60.583  1.00  0.00     0.236 C 
ATOM     38  O   GLY B   4       6.000  87.712  60.481  1.00  0.00    -0.272 OA
ATOM     39  N   THR B   5       6.726  89.834  60.268  1.00  7.70    -0.344 N 
ATOM     40  H   THR B   5       7.481  90.451  60.367  1.00  0.23     0.163 HD
BRANCH  39  41
ATOM     41  CA  THR B   5       5.448  90.348  59.783  1.00  7.88     0.205 C 
BRANCH  41  42
ATOM     42  CB  THR B   5       4.955  89.513  58.600  1.00  4.05     0.146 C 
ATOM     43  CG2 THR B   5       3.887  90.206  57.783  1.00  3.72     0.042 C 
BRANCH  42  44
ATOM     44  OG1 THR B   5       6.026  89.199  57.728  1.00  7.31    -0.393 OA
ATOM     45  HG1 THR B   5       5.970  89.746  56.942  1.00  0.23     0.210 HD
ENDBRANCH  42  44
ENDBRANCH  41  42
BRANCH  41  46
ATOM     46  C   THR B   5       4.407  90.338  60.897  1.00  7.05     0.243 C 
ATOM     47  N   TRP B   6       3.510  89.358  60.855  1.00  0.00    -0.346 N 
ATOM     48  H   TRP B   6       3.553  88.700  60.130  1.00  0.23     0.163 HD
ATOM     49  O   THR B   5       4.415  91.201  61.774  1.00  6.06    -0.271 OA
BRANCH  47  50
ATOM     50  CA  TRP B   6       2.461  89.240  61.859  1.00  0.00     0.181 C 
BRANCH  50  51
ATOM     51  CB  TRP B   6       1.308  88.391  61.322  1.00  0.00     0.075 C 
BRANCH  51  52
ATOM     52  CG  TRP B   6       0.854  88.817  59.959  1.00  0.00    -0.028 A 
ATOM     53  CD2 TRP B   6       1.022  88.093  58.735  1.00  0.00    -0.002 A 
ATOM     54  CE2 TRP B   6       0.439  88.863  57.711  1.00  0.00     0.042 A 
ATOM     55  CE3 TRP B   6       1.611  86.869  58.405  1.00  0.00     0.014 A 
ATOM     56  CZ2 TRP B   6       0.426  88.447  56.383  1.00  0.00     0.030 A 
ATOM     57  NE1 TRP B   6      -0.061  90.003  58.287  1.00  0.00    -0.365 N 
ATOM     58  CH2 TRP B   6       1.009  87.245  56.087  1.00  0.00     0.002 A 
ATOM     59  CZ3 TRP B   6       1.597  86.458  57.084  1.00  0.00     0.001 A 
ATOM     60  HE1 TRP B   6      -0.524  90.725  57.813  1.00  0.23     0.165 HD
ATOM     61  CD1 TRP B   6       0.193  89.967  59.637  1.00  0.00     0.096 A 
ENDBRANCH  51  52
ENDBRANCH  50  51
BRANCH  50  62
ATOM     62  C   TRP B   6       3.005  88.633  63.148  1.00  0.00     0.241 C 
ATOM     63  N   VAL B   7       2.390  88.994  64.270  1.00  6.11    -0.344 N 
ATOM     64  H   VAL B   7       1.635  89.616  64.221  1.00  0.23     0.163 HD
ATOM     65  O   TRP B   6       3.962  87.859  63.126  1.00  0.00    -0.271 OA
BRANCH  63  66
ATOM     66  CA  VAL B   7       2.812  88.490  65.571  1.00  5.65     0.189 C 
BRANCH  66  67
ATOM     67  CB  VAL B   7       2.850  89.619  66.620  1.00  1.15     0.010 C 
ATOM     68  CG1 VAL B   7       4.278  90.100  66.834  1.00  4.96     0.012 C 
ATOM     69  CG2 VAL B   7       1.949  90.771  66.204  1.00  9.83     0.012 C 
ENDBRANCH  66  67
BRANCH  66  70
ATOM     70  C   VAL B   7       1.881  87.385  66.062  1.00  4.44     0.197 C 
ATOM     71  OXT VAL B   7       1.029  86.934  65.270  1.00  0.00    -0.646 OA
ATOM     72  O   VAL B   7       2.014  86.980  67.235  1.00  0.00    -0.646 OA
ENDBRANCH  66  70
ENDBRANCH  63  66
ENDBRANCH  50  62
ENDBRANCH  47  50
ENDBRANCH  41  46
ENDBRANCH  39  41
ENDBRANCH   1  37
TORSDOF 28
ENDMDL
MODEL 8
REMARK VINA RESULT:      -4.7      2.500      6.281
REMARK  28 active torsions:
REMARK  status: ('A' for Active; 'I' for Inactive)
REMARK    1  A    between atoms: N_1  and  CA_2 
REMARK    2  A    between atoms: CA_2  and  CB_5 
REMARK    3  A    between atoms: CA_2  and  C_3 
REMARK       I    between atoms: C_3  and  N_14 
REMARK    4  A    between atoms: CB_5  and  CG_6 
REMARK    5  A    between atoms: CG_6  and  CD_7 
REMARK    6  A    between atoms: CD_7  and  CE_8 
REMARK    7  A    between atoms: CE_8  and  NZ_9 
REMARK    8  A    between atoms: N_14  and  CA_15 
REMARK    9  A    between atoms: CA_15  and  CB_18 
REMARK   10  A    between atoms: CA_15  and  C_16 
REMARK       I    between atoms: C_16  and  N_22 
REMARK   11  A    between atoms: CB_18  and  SG_19 
REMARK   12  A    between atoms: N_22  and  CA_23 
REMARK   13  A    between atoms: CA_23  and  CB_26 
REMARK   14  A    between atoms: CA_23  and  C_24 
REMARK       I    between atoms: C_24  and  N_34 
REMARK   15  A    between atoms: CB_26  and  CG_27 
REMARK   16  A    between atoms: N_34  and  CA_35 
REMARK   17  A    between atoms: CA_35  and  C_36 
REMARK       I    between atoms: C_36  and  N_45 
REMARK   18  A    between atoms: CA_39  and  N_45 
REMARK   19  A    between atoms: CA_39  and  CB_41 
REMARK   20  A    between atoms: CA_39  and  C_40 
REMARK       I    between atoms: C_40  and  N_61 
REMARK   21  A    between atoms: CB_41  and  OG1_47 
REMARK   22  A    between atoms: CA_48  and  CB_50 
REMARK   23  A    between atoms: CA_48  and  N_61 
REMARK   24  A    between atoms: CA_48  and  C_49 
REMARK       I    between atoms: C_49  and  N_70 
REMARK   25  A    between atoms: CB_50  and  CG_51 
REMARK   26  A    between atoms: CA_64  and  N_70 
REMARK   27  A    between atoms: CA_64  and  CB_66 
REMARK   28  A    between atoms: CA_64  and  C_65 
ROOT
ATOM      1  CA  GLY B   4       7.983  88.040  60.907  1.00  0.00     0.225 C 
ENDROOT
BRANCH   1   2
ATOM      2  N   GLY B   4       7.921  89.223  61.761  1.00  0.00    -0.351 N 
ATOM      3  H   GLY B   4       7.902  90.111  61.343  1.00  0.00     0.163 HD
ATOM      4  C   PHE B   3       7.886  89.133  63.089  1.00  0.00     0.241 C 
ATOM      5  O   PHE B   3       7.911  88.035  63.669  1.00  0.00    -0.271 OA
BRANCH   4   6
ATOM      6  CA  PHE B   3       7.847  90.416  63.885  1.00  0.00     0.180 C 
BRANCH   6   7
ATOM      7  CB  PHE B   3       8.540  91.541  63.059  1.00  0.00     0.073 C 
BRANCH   7   8
ATOM      8  CG  PHE B   3       9.584  92.391  63.801  1.00  0.00    -0.056 A 
ATOM      9  CD1 PHE B   3       9.183  93.557  64.463  1.00  0.00     0.007 A 
ATOM     10  CE1 PHE B   3      10.125  94.379  65.070  1.00  0.00     0.001 A 
ATOM     11  CZ  PHE B   3      11.474  94.032  65.034  1.00  0.00     0.000 A 
ATOM     12  CE2 PHE B   3      11.881  92.866  64.388  1.00  0.00     0.001 A 
ATOM     13  CD2 PHE B   3      10.938  92.048  63.770  1.00  0.00     0.007 A 
ENDBRANCH   7   8
ENDBRANCH   6   7
BRANCH   6  14
ATOM     14  N   PHE B   3       8.516  90.253  65.172  1.00  0.00    -0.346 N 
ATOM     15  C   CYS B   2       7.996  90.760  66.305  1.00  0.00     0.241 C 
ATOM     16  O   CYS B   2       6.941  91.388  66.322  1.00  0.00    -0.271 OA
ATOM     17  H   PHE B   3       9.362  89.765  65.212  1.00  0.00     0.163 HD
BRANCH  15  18
ATOM     18  CA  CYS B   2       8.773  90.478  67.571  1.00  0.00     0.185 C 
BRANCH  18  19
ATOM     19  N   CYS B   2       7.914  89.874  68.586  1.00  0.00    -0.345 N 
ATOM     20  C   LYS B   1       7.246  88.740  68.353  1.00  0.00     0.254 C 
ATOM     21  O   LYS B   1       7.278  88.174  67.255  1.00  0.00    -0.271 OA
ATOM     22  H   CYS B   2       7.825  90.311  69.462  1.00  0.00     0.163 HD
BRANCH  20  23
ATOM     23  CA  LYS B   1       6.409  88.212  69.494  1.00  0.00     0.350 C 
BRANCH  23  24
ATOM     24  N   LYS B   1       7.249  87.815  70.620  1.00  0.00     0.312 N 
ATOM     25  H   LYS B   1       7.354  88.635  71.295  1.00  0.00     0.359 HD
ENDBRANCH  23  24
BRANCH  23  26
ATOM     26  CB  LYS B   1       5.380  89.276  69.966  1.00  0.00     0.048 C 
BRANCH  26  27
ATOM     27  CG  LYS B   1       4.510  89.843  68.817  1.00  0.00     0.004 C 
BRANCH  27  28
ATOM     28  CD  LYS B   1       3.120  89.214  68.690  1.00  0.00     0.027 C 
BRANCH  28  29
ATOM     29  CE  LYS B   1       2.058  90.322  68.721  1.00  0.00     0.229 C 
BRANCH  29  30
ATOM     30  NZ  LYS B   1       2.133  91.036  70.008  1.00  0.00    -0.079 N 
ATOM     31  HZ3 LYS B   1       1.211  91.412  70.178  1.00  0.00     0.274 HD
ATOM     32  HZ2 LYS B   1       2.833  91.784  69.980  1.00  0.00     0.274 HD
ATOM     33  HZ1 LYS B   1       2.425  90.400  70.759  1.00  0.00     0.274 HD
ENDBRANCH  29  30
ENDBRANCH  28  29
ENDBRANCH  27  28
ENDBRANCH  26  27
ENDBRANCH  23  26
ENDBRANCH  20  23
ENDBRANCH  18  19
BRANCH  18  34
ATOM     34  CB  CYS B   2       9.975  89.545  67.328  1.00  0.00     0.105 C 
BRANCH  34  35
ATOM     35  SG  CYS B   2      11.495  90.501  67.120  1.00  0.00    -0.180 SA
ATOM     36  HG  CYS B   2      11.783  90.625  68.413  1.00  0.00     0.101 HD
ENDBRANCH  34  35
ENDBRANCH  18  34
ENDBRANCH  15  18
ENDBRANCH   6  14
ENDBRANCH   4   6
ENDBRANCH   1   2
BRANCH   1  37
ATOM     37  C   GLY B   4       6.605  87.476  60.662  1.00  0.00     0.236 C 
ATOM     38  O   GLY B   4       6.312  86.327  61.008  1.00  0.00    -0.272 OA
ATOM     39  N   THR B   5       5.734  88.281  60.049  1.00  7.70    -0.344 N 
ATOM     40  H   THR B   5       6.025  89.182  59.795  1.00  0.23     0.163 HD
BRANCH  39  41
ATOM     41  CA  THR B   5       4.368  87.865  59.746  1.00  7.88     0.205 C 
BRANCH  41  42
ATOM     42  CB  THR B   5       4.338  86.385  59.358  1.00  4.05     0.146 C 
ATOM     43  CG2 THR B   5       2.942  85.865  59.095  1.00  3.72     0.042 C 
BRANCH  42  44
ATOM     44  OG1 THR B   5       5.108  86.158  58.191  1.00  7.31    -0.393 OA
ATOM     45  HG1 THR B   5       5.904  86.692  58.224  1.00  0.23     0.210 HD
ENDBRANCH  42  44
ENDBRANCH  41  42
BRANCH  41  46
ATOM     46  C   THR B   5       3.453  88.108  60.942  1.00  7.05     0.243 C 
ATOM     47  N   TRP B   6       3.979  87.877  62.140  1.00  0.00    -0.346 N 
ATOM     48  H   TRP B   6       4.907  87.570  62.205  1.00  0.23     0.163 HD
ATOM     49  O   THR B   5       2.296  88.493  60.782  1.00  6.06    -0.271 OA
BRANCH  47  50
ATOM     50  CA  TRP B   6       3.207  88.068  63.362  1.00  0.00     0.181 C 
BRANCH  50  51
ATOM     51  CB  TRP B   6       2.460  89.401  63.311  1.00  0.00     0.075 C 
BRANCH  51  52
ATOM     52  CG  TRP B   6       3.243  90.532  63.904  1.00  0.00    -0.028 A 
ATOM     53  CD2 TRP B   6       4.078  91.459  63.199  1.00  0.00    -0.002 A 
ATOM     54  CE2 TRP B   6       4.608  92.351  64.150  1.00  0.00     0.042 A 
ATOM     55  CE3 TRP B   6       4.429  91.619  61.856  1.00  0.00     0.014 A 
ATOM     56  CZ2 TRP B   6       5.468  93.387  63.800  1.00  0.00     0.030 A 
ATOM     57  NE1 TRP B   6       4.117  91.984  65.377  1.00  0.00    -0.365 N 
ATOM     58  CH2 TRP B   6       5.796  93.522  62.478  1.00  0.00     0.002 A 
ATOM     59  CZ3 TRP B   6       5.285  92.650  61.510  1.00  0.00     0.001 A 
ATOM     60  HE1 TRP B   6       4.318  92.428  66.227  1.00  0.23     0.165 HD
ATOM     61  CD1 TRP B   6       3.299  90.891  65.220  1.00  0.00     0.096 A 
ENDBRANCH  51  52
ENDBRANCH  50  51
BRANCH  50  62
ATOM     62  C   TRP B   6       2.223  86.921  63.569  1.00  0.00     0.241 C 
ATOM     63  N   VAL B   7       2.757  85.713  63.721  1.00  6.11    -0.344 N 
ATOM     64  H   VAL B   7       3.731  85.615  63.695  1.00  0.23     0.163 HD
ATOM     65  O   TRP B   6       1.009  87.127  63.588  1.00  0.00    -0.271 OA
BRANCH  63  66
ATOM     66  CA  VAL B   7       1.930  84.530  63.924  1.00  5.65     0.189 C 
BRANCH  66  67
ATOM     67  CB  VAL B   7       2.300  83.414  62.928  1.00  1.15     0.010 C 
ATOM     68  CG1 VAL B   7       1.363  83.435  61.729  1.00  4.96     0.012 C 
ATOM     69  CG2 VAL B   7       3.749  83.549  62.483  1.00  9.83     0.012 C 
ENDBRANCH  66  67
BRANCH  66  70
ATOM     70  C   VAL B   7       2.070  83.997  65.346  1.00  4.44     0.197 C 
ATOM     71  OXT VAL B   7       2.132  82.762  65.512  1.00  0.00    -0.646 OA
ATOM     72  O   VAL B   7       2.119  84.822  66.283  1.00  0.00    -0.646 OA
ENDBRANCH  66  70
ENDBRANCH  63  66
ENDBRANCH  50  62
ENDBRANCH  47  50
ENDBRANCH  41  46
ENDBRANCH  39  41
ENDBRANCH   1  37
TORSDOF 28
ENDMDL
MODEL 9
REMARK VINA RESULT:      -4.5      2.533      6.065
REMARK  28 active torsions:
REMARK  status: ('A' for Active; 'I' for Inactive)
REMARK    1  A    between atoms: N_1  and  CA_2 
REMARK    2  A    between atoms: CA_2  and  CB_5 
REMARK    3  A    between atoms: CA_2  and  C_3 
REMARK       I    between atoms: C_3  and  N_14 
REMARK    4  A    between atoms: CB_5  and  CG_6 
REMARK    5  A    between atoms: CG_6  and  CD_7 
REMARK    6  A    between atoms: CD_7  and  CE_8 
REMARK    7  A    between atoms: CE_8  and  NZ_9 
REMARK    8  A    between atoms: N_14  and  CA_15 
REMARK    9  A    between atoms: CA_15  and  CB_18 
REMARK   10  A    between atoms: CA_15  and  C_16 
REMARK       I    between atoms: C_16  and  N_22 
REMARK   11  A    between atoms: CB_18  and  SG_19 
REMARK   12  A    between atoms: N_22  and  CA_23 
REMARK   13  A    between atoms: CA_23  and  CB_26 
REMARK   14  A    between atoms: CA_23  and  C_24 
REMARK       I    between atoms: C_24  and  N_34 
REMARK   15  A    between atoms: CB_26  and  CG_27 
REMARK   16  A    between atoms: N_34  and  CA_35 
REMARK   17  A    between atoms: CA_35  and  C_36 
REMARK       I    between atoms: C_36  and  N_45 
REMARK   18  A    between atoms: CA_39  and  N_45 
REMARK   19  A    between atoms: CA_39  and  CB_41 
REMARK   20  A    between atoms: CA_39  and  C_40 
REMARK       I    between atoms: C_40  and  N_61 
REMARK   21  A    between atoms: CB_41  and  OG1_47 
REMARK   22  A    between atoms: CA_48  and  CB_50 
REMARK   23  A    between atoms: CA_48  and  N_61 
REMARK   24  A    between atoms: CA_48  and  C_49 
REMARK       I    between atoms: C_49  and  N_70 
REMARK   25  A    between atoms: CB_50  and  CG_51 
REMARK   26  A    between atoms: CA_64  and  N_70 
REMARK   27  A    between atoms: CA_64  and  CB_66 
REMARK   28  A    between atoms: CA_64  and  C_65 
ROOT
ATOM      1  CA  GLY B   4       8.209  88.067  60.924  1.00  0.00     0.225 C 
ENDROOT
BRANCH   1   2
ATOM      2  N   GLY B   4       8.146  89.241  61.789  1.00  0.00    -0.351 N 
ATOM      3  H   GLY B   4       8.162  90.135  61.382  1.00  0.00     0.163 HD
ATOM      4  C   PHE B   3       8.064  89.138  63.114  1.00  0.00     0.241 C 
ATOM      5  O   PHE B   3       8.044  88.033  63.681  1.00  0.00    -0.271 OA
BRANCH   4   6
ATOM      6  CA  PHE B   3       8.028  90.412  63.924  1.00  0.00     0.180 C 
BRANCH   6   7
ATOM      7  CB  PHE B   3       8.645  91.564  63.075  1.00  0.00     0.073 C 
BRANCH   7   8
ATOM      8  CG  PHE B   3       9.673  92.462  63.783  1.00  0.00    -0.056 A 
ATOM      9  CD1 PHE B   3       9.242  93.615  64.447  1.00  0.00     0.007 A 
ATOM     10  CE1 PHE B   3      10.166  94.480  65.023  1.00  0.00     0.001 A 
ATOM     11  CZ  PHE B   3      11.526  94.188  64.953  1.00  0.00     0.000 A 
ATOM     12  CE2 PHE B   3      11.963  93.035  64.304  1.00  0.00     0.001 A 
ATOM     13  CD2 PHE B   3      11.038  92.174  63.717  1.00  0.00     0.007 A 
ENDBRANCH   7   8
ENDBRANCH   6   7
BRANCH   6  14
ATOM     14  N   PHE B   3       8.767  90.259  65.173  1.00  0.00    -0.346 N 
ATOM     15  C   CYS B   2       8.297  90.751  66.335  1.00  0.00     0.241 C 
ATOM     16  O   CYS B   2       7.231  91.356  66.409  1.00  0.00    -0.271 OA
ATOM     17  H   PHE B   3       9.624  89.788  65.167  1.00  0.00     0.163 HD
BRANCH  15  18
ATOM     18  CA  CYS B   2       9.144  90.479  67.557  1.00  0.00     0.185 C 
BRANCH  18  19
ATOM     19  N   CYS B   2       8.372  89.786  68.584  1.00  0.00    -0.345 N 
ATOM     20  C   LYS B   1       7.776  88.615  68.339  1.00  0.00     0.254 C 
ATOM     21  O   LYS B   1       7.802  88.086  67.223  1.00  0.00    -0.271 OA
ATOM     22  H   CYS B   2       8.288  90.189  69.476  1.00  0.00     0.163 HD
BRANCH  20  23
ATOM     23  CA  LYS B   1       7.024  87.994  69.493  1.00  0.00     0.350 C 
BRANCH  23  24
ATOM     24  N   LYS B   1       5.582  88.136  69.315  1.00  0.00     0.312 N 
ATOM     25  H   LYS B   1       5.197  87.275  68.816  1.00  0.00     0.359 HD
ENDBRANCH  23  24
BRANCH  23  26
ATOM     26  CB  LYS B   1       7.381  86.489  69.642  1.00  0.00     0.048 C 
BRANCH  26  27
ATOM     27  CG  LYS B   1       8.887  86.237  69.902  1.00  0.00     0.004 C 
BRANCH  27  28
ATOM     28  CD  LYS B   1       9.264  86.049  71.374  1.00  0.00     0.027 C 
BRANCH  28  29
ATOM     29  CE  LYS B   1       9.895  84.663  71.562  1.00  0.00     0.229 C 
BRANCH  29  30
ATOM     30  NZ  LYS B   1       8.928  83.626  71.160  1.00  0.00    -0.079 N 
ATOM     31  HZ3 LYS B   1       9.168  82.796  71.682  1.00  0.00     0.274 HD
ATOM     32  HZ2 LYS B   1       8.971  83.447  70.151  1.00  0.00     0.274 HD
ATOM     33  HZ1 LYS B   1       7.967  83.931  71.355  1.00  0.00     0.274 HD
ENDBRANCH  29  30
ENDBRANCH  28  29
ENDBRANCH  27  28
ENDBRANCH  26  27
ENDBRANCH  23  26
ENDBRANCH  20  23
ENDBRANCH  18  19
BRANCH  18  34
ATOM     34  CB  CYS B   2      10.393  89.639  67.232  1.00  0.00     0.105 C 
BRANCH  34  35
ATOM     35  SG  CYS B   2      11.851  90.695  67.070  1.00  0.00    -0.180 SA
ATOM     36  HG  CYS B   2      12.155  90.746  68.365  1.00  0.00     0.101 HD
ENDBRANCH  34  35
ENDBRANCH  18  34
ENDBRANCH  15  18
ENDBRANCH   6  14
ENDBRANCH   4   6
ENDBRANCH   1   2
BRANCH   1  37
ATOM     37  C   GLY B   4       6.831  87.513  60.662  1.00  0.00     0.236 C 
ATOM     38  O   GLY B   4       6.508  86.386  61.054  1.00  0.00    -0.272 OA
ATOM     39  N   THR B   5       5.992  88.299  59.983  1.00  7.70    -0.344 N 
ATOM     40  H   THR B   5       6.305  89.182  59.695  1.00  0.23     0.163 HD
BRANCH  39  41
ATOM     41  CA  THR B   5       4.630  87.889  59.657  1.00  7.88     0.205 C 
BRANCH  41  42
ATOM     42  CB  THR B   5       4.597  86.404  59.289  1.00  4.05     0.146 C 
ATOM     43  CG2 THR B   5       3.208  85.901  58.959  1.00  3.72     0.042 C 
BRANCH  42  44
ATOM     44  OG1 THR B   5       5.424  86.147  58.168  1.00  7.31    -0.393 OA
ATOM     45  HG1 THR B   5       6.226  86.670  58.236  1.00  0.23     0.210 HD
ENDBRANCH  42  44
ENDBRANCH  41  42
BRANCH  41  46
ATOM     46  C   THR B   5       3.692  88.155  60.830  1.00  7.05     0.243 C 
ATOM     47  N   TRP B   6       4.231  88.080  62.042  1.00  0.00    -0.346 N 
ATOM     48  H   TRP B   6       5.182  87.862  62.131  1.00  0.23     0.163 HD
ATOM     49  O   THR B   5       2.506  88.421  60.640  1.00  6.06    -0.271 OA
BRANCH  47  50
ATOM     50  CA  TRP B   6       3.440  88.309  63.244  1.00  0.00     0.181 C 
BRANCH  50  51
ATOM     51  CB  TRP B   6       2.745  89.669  63.168  1.00  0.00     0.075 C 
BRANCH  51  52
ATOM     52  CG  TRP B   6       3.646  90.807  63.537  1.00  0.00    -0.028 A 
ATOM     53  CD2 TRP B   6       4.356  91.665  62.636  1.00  0.00    -0.002 A 
ATOM     54  CE2 TRP B   6       5.069  92.593  63.419  1.00  0.00     0.042 A 
ATOM     55  CE3 TRP B   6       4.460  91.737  61.244  1.00  0.00     0.014 A 
ATOM     56  CZ2 TRP B   6       5.871  93.581  62.855  1.00  0.00     0.030 A 
ATOM     57  NE1 TRP B   6       4.803  92.313  64.734  1.00  0.00    -0.365 N 
ATOM     58  CH2 TRP B   6       5.955  93.629  61.490  1.00  0.00     0.002 A 
ATOM     59  CZ3 TRP B   6       5.258  92.719  60.686  1.00  0.00     0.001 A 
ATOM     60  HE1 TRP B   6       5.164  92.799  65.505  1.00  0.23     0.165 HD
ATOM     61  CD1 TRP B   6       3.948  91.239  64.796  1.00  0.00     0.096 A 
ENDBRANCH  51  52
ENDBRANCH  50  51
BRANCH  50  62
ATOM     62  C   TRP B   6       2.409  87.202  63.438  1.00  0.00     0.241 C 
ATOM     63  N   VAL B   7       2.889  85.965  63.529  1.00  6.11    -0.344 N 
ATOM     64  H   VAL B   7       3.857  85.824  63.470  1.00  0.23     0.163 HD
ATOM     65  O   TRP B   6       1.207  87.462  63.501  1.00  0.00    -0.271 OA
BRANCH  63  66
ATOM     66  CA  VAL B   7       2.013  84.815  63.712  1.00  5.65     0.189 C 
BRANCH  66  67
ATOM     67  CB  VAL B   7       2.378  83.676  62.739  1.00  1.15     0.010 C 
ATOM     68  CG1 VAL B   7       1.474  83.710  61.515  1.00  4.96     0.012 C 
ATOM     69  CG2 VAL B   7       3.841  83.764  62.333  1.00  9.83     0.012 C 
ENDBRANCH  66  67
BRANCH  66  70
ATOM     70  C   VAL B   7       2.085  84.290  65.143  1.00  4.44     0.197 C 
ATOM     71  OXT VAL B   7       2.113  83.056  65.320  1.00  0.00    -0.646 OA
ATOM     72  O   VAL B   7       2.113  85.122  66.075  1.00  0.00    -0.646 OA
ENDBRANCH  66  70
ENDBRANCH  63  66
ENDBRANCH  50  62
ENDBRANCH  47  50
ENDBRANCH  41  46
ENDBRANCH  39  41
ENDBRANCH   1  37
TORSDOF 28
ENDMDL
