REMARK  30 active torsions:
REMARK  status: ('A' for Active; 'I' for Inactive)
REMARK    1  A    between atoms: N_1  and  CA_2 
REMARK    2  A    between atoms: CA_2  and  CB_5 
REMARK    3  A    between atoms: CA_2  and  C_3 
REMARK       I    between atoms: C_3  and  N_14 
REMARK    4  A    between atoms: CB_5  and  CG_6 
REMARK    5  A    between atoms: CG_6  and  CD_7 
REMARK    6  A    between atoms: CD_7  and  CE_8 
REMARK    7  A    between atoms: CE_8  and  NZ_9 
REMARK    8  A    between atoms: N_14  and  CA_15 
REMARK    9  A    between atoms: CA_15  and  CB_18 
REMARK   10  A    between atoms: CA_15  and  C_16 
REMARK       I    between atoms: C_16  and  N_22 
REMARK   11  A    between atoms: CB_18  and  SG_19 
REMARK   12  A    between atoms: N_22  and  CA_23 
REMARK   13  A    between atoms: CA_23  and  CB_26 
REMARK   14  A    between atoms: CA_23  and  C_24 
REMARK       I    between atoms: C_24  and  N_34 
REMARK   15  A    between atoms: CB_26  and  CG_27 
REMARK   16  A    between atoms: N_34  and  CA_35 
REMARK   17  A    between atoms: CA_35  and  CB_38 
REMARK   18  A    between atoms: CA_35  and  C_36 
REMARK       I    between atoms: C_36  and  N_52 
REMARK   19  A    between atoms: CB_38  and  CG_39 
REMARK   20  A    between atoms: CA_46  and  N_52 
REMARK   21  A    between atoms: CA_46  and  CB_48 
REMARK   22  A    between atoms: CA_46  and  C_47 
REMARK       I    between atoms: C_47  and  N_68 
REMARK   23  A    between atoms: CB_48  and  OG1_54 
REMARK   24  A    between atoms: CA_55  and  CB_57 
REMARK   25  A    between atoms: CA_55  and  N_68 
REMARK   26  A    between atoms: CA_55  and  C_56 
REMARK       I    between atoms: C_56  and  N_77 
REMARK   27  A    between atoms: CB_57  and  CG_58 
REMARK   28  A    between atoms: CA_71  and  N_77 
REMARK   29  A    between atoms: CA_71  and  CB_73 
REMARK   30  A    between atoms: CA_71  and  C_72 
ROOT
ATOM      1  CA  HIS B   4       2.963  -2.070  -1.434  1.00  0.00     0.182 C 
ENDROOT
BRANCH   1   2
ATOM      2  CB  HIS B   4       1.614  -1.645  -2.036  1.00  0.00     0.095 C 
BRANCH   2   3
ATOM      3  CG  HIS B   4       1.770  -0.606  -3.108  1.00  0.00     0.053 A 
ATOM      4  CD2 HIS B   4       1.528  -0.869  -4.449  1.00  0.00     0.116 A 
ATOM      5  NE2 HIS B   4       1.763   0.282  -5.156  1.00  0.00    -0.359 N 
ATOM      6  CE1 HIS B   4       2.133   1.157  -4.182  1.00  0.00     0.207 A 
ATOM      7  HE2 HIS B   4       1.680   0.436  -6.171  1.00  0.00     0.166 HD
ATOM      8  ND1 HIS B   4       2.164   0.716  -2.911  1.00  0.00    -0.247 NA
ENDBRANCH   2   3
ENDBRANCH   1   2
BRANCH   1   9
ATOM      9  C   HIS B   4       3.545  -0.952  -0.603  1.00  0.00     0.241 C 
ATOM     10  O   HIS B   4       3.056  -0.622   0.476  1.00  0.00    -0.271 OA
ATOM     11  N   THR B   5       4.607  -0.349  -1.134  1.00  7.70    -0.344 N 
ATOM     12  H   THR B   5       4.944  -0.656  -2.002  1.00  0.23     0.163 HD
BRANCH  11  13
ATOM     13  CA  THR B   5       5.286   0.753  -0.459  1.00  7.88     0.205 C 
BRANCH  13  14
ATOM     14  CB  THR B   5       6.709   0.344  -0.075  1.00  4.05     0.146 C 
ATOM     15  CG2 THR B   5       7.356   1.289   0.914  1.00  3.72     0.042 C 
BRANCH  14  16
ATOM     16  OG1 THR B   5       6.720  -0.951   0.499  1.00  7.31    -0.393 OA
ATOM     17  HG1 THR B   5       6.777  -1.609  -0.197  1.00  0.23     0.210 HD
ENDBRANCH  14  16
ENDBRANCH  13  14
BRANCH  13  18
ATOM     18  C   THR B   5       5.323   1.989  -1.352  1.00  7.05     0.243 C 
ATOM     19  O   THR B   5       5.874   1.955  -2.452  1.00  6.06    -0.271 OA
ATOM     20  N   TRP B   6       4.731   3.078  -0.874  1.00  0.00    -0.346 N 
ATOM     21  H   TRP B   6       4.307   3.044   0.009  1.00  0.23     0.163 HD
BRANCH  20  22
ATOM     22  CA  TRP B   6       4.694   4.322  -1.632  1.00  0.00     0.181 C 
BRANCH  22  23
ATOM     23  CB  TRP B   6       3.466   5.144  -1.238  1.00  0.00     0.075 C 
BRANCH  23  24
ATOM     24  CG  TRP B   6       2.176   4.494  -1.635  1.00  0.00    -0.028 A 
ATOM     25  CD2 TRP B   6       1.490   4.644  -2.884  1.00  0.00    -0.002 A 
ATOM     26  CE3 TRP B   6       1.744   5.374  -4.048  1.00  0.00     0.014 A 
ATOM     27  CE2 TRP B   6       0.330   3.849  -2.820  1.00  0.00     0.042 A 
ATOM     28  CZ3 TRP B   6       0.846   5.288  -5.097  1.00  0.00     0.001 A 
ATOM     29  CH2 TRP B   6      -0.300   4.489  -5.005  1.00  0.00     0.002 A 
ATOM     30  CZ2 TRP B   6      -0.572   3.764  -3.877  1.00  0.00     0.030 A 
ATOM     31  NE1 TRP B   6       0.312   3.244  -1.590  1.00  0.00    -0.365 N 
ATOM     32  CD1 TRP B   6       1.424   3.637  -0.885  1.00  0.00     0.096 A 
ATOM     33  HE1 TRP B   6      -0.381   2.631  -1.266  1.00  0.23     0.165 HD
ENDBRANCH  23  24
ENDBRANCH  22  23
BRANCH  22  34
ATOM     34  C   TRP B   6       5.965   5.135  -1.408  1.00  0.00     0.241 C 
ATOM     35  N   VAL B   7       6.752   5.293  -2.468  1.00  6.11    -0.344 N 
ATOM     36  H   VAL B   7       6.488   4.893  -3.322  1.00  0.23     0.163 HD
ATOM     37  O   TRP B   6       6.227   5.604  -0.300  1.00  0.00    -0.271 OA
BRANCH  35  38
ATOM     38  CA  VAL B   7       7.998   6.045  -2.391  1.00  5.65     0.189 C 
BRANCH  38  39
ATOM     39  CB  VAL B   7       9.053   5.476  -3.360  1.00  1.15     0.010 C 
ATOM     40  CG1 VAL B   7       9.474   4.078  -2.930  1.00  4.96     0.012 C 
ATOM     41  CG2 VAL B   7       8.523   5.465  -4.786  1.00  9.83     0.012 C 
ENDBRANCH  38  39
BRANCH  38  42
ATOM     42  C   VAL B   7       7.772   7.520  -2.710  1.00  4.44     0.197 C 
ATOM     43  O   VAL B   7       8.412   8.369  -2.055  1.00  0.00    -0.646 OA
ATOM     44  OXT VAL B   7       6.958   7.813  -3.609  1.00  0.00    -0.646 OA
ENDBRANCH  38  42
ENDBRANCH  35  38
ENDBRANCH  22  34
ENDBRANCH  20  22
ENDBRANCH  13  18
ENDBRANCH  11  13
ENDBRANCH   1   9
BRANCH   1  45
ATOM     45  N   HIS B   4       2.694  -3.247  -0.612  1.00  0.00    -0.346 N 
ATOM     46  C   PHE B   3       3.729  -4.019  -0.170  1.00  0.00     0.241 C 
ATOM     47  O   PHE B   3       4.909  -3.750  -0.448  1.00  0.00    -0.271 OA
ATOM     48  H   HIS B   4       1.785  -3.479  -0.383  1.00  0.00     0.163 HD
BRANCH  46  49
ATOM     49  CA  PHE B   3       3.402  -5.210   0.699  1.00  0.00     0.180 C 
BRANCH  49  50
ATOM     50  N   PHE B   3       2.350  -4.885   1.657  1.00  0.00    -0.346 N 
ATOM     51  H   PHE B   3       1.876  -4.034   1.576  1.00  0.00     0.163 HD
ATOM     52  C   CYS B   2       2.016  -5.730   2.650  1.00  0.00     0.241 C 
ATOM     53  O   CYS B   2       2.568  -6.816   2.803  1.00  0.00    -0.271 OA
BRANCH  52  54
ATOM     54  CA  CYS B   2       0.941  -5.245   3.595  1.00  0.00     0.185 C 
BRANCH  54  55
ATOM     55  CB  CYS B   2       1.503  -4.856   4.976  1.00  0.00     0.105 C 
BRANCH  55  56
ATOM     56  SG  CYS B   2       2.757  -3.564   4.816  1.00  0.00    -0.180 SA
ATOM     57  HG  CYS B   2       3.815  -4.342   5.031  1.00  0.00     0.101 HD
ENDBRANCH  55  56
ENDBRANCH  54  55
BRANCH  54  58
ATOM     58  N   CYS B   2      -0.088  -6.264   3.783  1.00  0.00    -0.345 N 
ATOM     59  H   CYS B   2      -0.933  -6.191   3.286  1.00  0.00     0.163 HD
ATOM     60  C   LYS B   1       0.092  -7.294   4.615  1.00  0.00     0.254 C 
ATOM     61  O   LYS B   1       1.152  -7.467   5.226  1.00  0.00    -0.271 OA
BRANCH  60  62
ATOM     62  CA  LYS B   1      -1.058  -8.267   4.732  1.00  0.00     0.350 C 
BRANCH  62  63
ATOM     63  N   LYS B   1      -2.222  -7.630   5.341  1.00  0.00     0.312 N 
ATOM     64  H   LYS B   1      -1.997  -6.610   5.561  1.00  0.00     0.359 HD
ENDBRANCH  62  63
BRANCH  62  65
ATOM     65  CB  LYS B   1      -1.448  -8.835   3.340  1.00  0.00     0.048 C 
BRANCH  65  66
ATOM     66  CG  LYS B   1      -2.450 -10.014   3.415  1.00  0.00     0.004 C 
BRANCH  66  67
ATOM     67  CD  LYS B   1      -2.847 -10.609   2.061  1.00  0.00     0.027 C 
BRANCH  67  68
ATOM     68  CE  LYS B   1      -3.849 -11.750   2.284  1.00  0.00     0.229 C 
BRANCH  68  69
ATOM     69  NZ  LYS B   1      -4.242 -12.318   0.983  1.00  0.00    -0.079 N 
ATOM     70  HZ3 LYS B   1      -4.990 -11.736   0.633  1.00  0.00     0.274 HD
ATOM     71  HZ2 LYS B   1      -4.551 -13.291   1.078  1.00  0.00     0.274 HD
ATOM     72  HZ1 LYS B   1      -3.443 -12.334   0.338  1.00  0.00     0.274 HD
ENDBRANCH  68  69
ENDBRANCH  67  68
ENDBRANCH  66  67
ENDBRANCH  65  66
ENDBRANCH  62  65
ENDBRANCH  60  62
ENDBRANCH  54  58
ENDBRANCH  52  54
ENDBRANCH  49  50
BRANCH  49  73
ATOM     73  CB  PHE B   3       2.949  -6.389  -0.214  1.00  0.00     0.073 C 
BRANCH  73  74
ATOM     74  CG  PHE B   3       3.966  -6.876  -1.259  1.00  0.00    -0.056 A 
ATOM     75  CD2 PHE B   3       3.883  -6.455  -2.588  1.00  0.00     0.007 A 
ATOM     76  CE2 PHE B   3       4.852  -6.848  -3.508  1.00  0.00     0.001 A 
ATOM     77  CZ  PHE B   3       5.910  -7.659  -3.101  1.00  0.00     0.000 A 
ATOM     78  CE1 PHE B   3       5.998  -8.083  -1.777  1.00  0.00     0.001 A 
ATOM     79  CD1 PHE B   3       5.025  -7.700  -0.861  1.00  0.00     0.007 A 
ENDBRANCH  73  74
ENDBRANCH  49  73
ENDBRANCH  46  49
ENDBRANCH   1  45
TORSDOF 30
