MODEL 1
REMARK VINA RESULT:      -7.5      0.000      0.000
REMARK  30 active torsions:
REMARK  status: ('A' for Active; 'I' for Inactive)
REMARK    1  A    between atoms: N_1  and  CA_2 
REMARK    2  A    between atoms: CA_2  and  CB_5 
REMARK    3  A    between atoms: CA_2  and  C_3 
REMARK       I    between atoms: C_3  and  N_14 
REMARK    4  A    between atoms: CB_5  and  CG_6 
REMARK    5  A    between atoms: CG_6  and  CD_7 
REMARK    6  A    between atoms: CD_7  and  CE_8 
REMARK    7  A    between atoms: CE_8  and  NZ_9 
REMARK    8  A    between atoms: N_14  and  CA_15 
REMARK    9  A    between atoms: CA_15  and  CB_18 
REMARK   10  A    between atoms: CA_15  and  C_16 
REMARK       I    between atoms: C_16  and  N_22 
REMARK   11  A    between atoms: CB_18  and  SG_19 
REMARK   12  A    between atoms: N_22  and  CA_23 
REMARK   13  A    between atoms: CA_23  and  CB_26 
REMARK   14  A    between atoms: CA_23  and  C_24 
REMARK       I    between atoms: C_24  and  N_34 
REMARK   15  A    between atoms: CB_26  and  CG_27 
REMARK   16  A    between atoms: N_34  and  CA_35 
REMARK   17  A    between atoms: CA_35  and  CB_38 
REMARK   18  A    between atoms: CA_35  and  C_36 
REMARK       I    between atoms: C_36  and  N_48 
REMARK   19  A    between atoms: CB_38  and  SG_39 
REMARK   20  A    between atoms: CA_42  and  N_48 
REMARK   21  A    between atoms: CA_42  and  CB_44 
REMARK   22  A    between atoms: CA_42  and  C_43 
REMARK       I    between atoms: C_43  and  N_64 
REMARK   23  A    between atoms: CB_44  and  OG1_50 
REMARK   24  A    between atoms: CA_51  and  CB_53 
REMARK   25  A    between atoms: CA_51  and  N_64 
REMARK   26  A    between atoms: CA_51  and  C_52 
REMARK       I    between atoms: C_52  and  N_73 
REMARK   27  A    between atoms: CB_53  and  CG_54 
REMARK   28  A    between atoms: CA_67  and  N_73 
REMARK   29  A    between atoms: CA_67  and  CB_69 
REMARK   30  A    between atoms: CA_67  and  C_68 
ROOT
ATOM      1  CA  CYS B   4       5.734  92.413  60.966  1.00  0.00     0.185 C 
ENDROOT
BRANCH   1   2
ATOM      2  CB  CYS B   4       4.839  93.524  60.385  1.00  0.00     0.105 C 
BRANCH   2   3
ATOM      3  SG  CYS B   4       4.186  94.575  61.703  1.00  0.00    -0.180 SA
ATOM      4  HG  CYS B   4       3.884  93.596  62.552  1.00  0.00     0.101 HD
ENDBRANCH   2   3
ENDBRANCH   1   2
BRANCH   1   5
ATOM      5  C   CYS B   4       6.800  92.955  61.890  1.00  0.00     0.242 C 
ATOM      6  O   CYS B   4       7.708  93.661  61.446  1.00  0.00    -0.271 OA
ATOM      7  N   THR B   5       6.727  92.568  63.153  1.00  7.70    -0.344 N 
ATOM      8  H   THR B   5       5.987  91.989  63.433  1.00  0.23     0.163 HD
BRANCH   7   9
ATOM      9  CA  THR B   5       7.708  92.996  64.147  1.00  7.88     0.205 C 
BRANCH   9  10
ATOM     10  CB  THR B   5       7.022  93.263  65.488  1.00  4.05     0.146 C 
ATOM     11  CG2 THR B   5       5.512  93.236  65.402  1.00  3.72     0.042 C 
BRANCH  10  12
ATOM     12  OG1 THR B   5       7.415  92.302  66.451  1.00  7.31    -0.393 OA
ATOM     13  HG1 THR B   5       8.297  91.987  66.247  1.00  0.23     0.210 HD
ENDBRANCH  10  12
ENDBRANCH   9  10
BRANCH   9  14
ATOM     14  C   THR B   5       8.794  91.939  64.319  1.00  7.05     0.243 C 
ATOM     15  N   TRP B   6       9.632  92.117  65.334  1.00  0.00    -0.346 N 
ATOM     16  H   TRP B   6       9.521  92.899  65.915  1.00  0.23     0.163 HD
ATOM     17  O   THR B   5       8.871  90.984  63.547  1.00  6.06    -0.271 OA
BRANCH  15  18
ATOM     18  CA  TRP B   6      10.715  91.180  65.604  1.00  0.00     0.181 C 
BRANCH  18  19
ATOM     19  CB  TRP B   6      11.931  91.924  66.158  1.00  0.00     0.075 C 
BRANCH  19  20
ATOM     20  CG  TRP B   6      12.485  92.934  65.200  1.00  0.00    -0.028 A 
ATOM     21  CD2 TRP B   6      13.607  92.760  64.327  1.00  0.00    -0.002 A 
ATOM     22  CE2 TRP B   6      13.764  93.959  63.606  1.00  0.00     0.042 A 
ATOM     23  CE3 TRP B   6      14.494  91.707  64.086  1.00  0.00     0.014 A 
ATOM     24  CZ2 TRP B   6      14.771  94.132  62.661  1.00  0.00     0.030 A 
ATOM     25  NE1 TRP B   6      12.783  94.821  64.022  1.00  0.00    -0.365 N 
ATOM     26  CH2 TRP B   6      15.626  93.086  62.444  1.00  0.00     0.002 A 
ATOM     27  CZ3 TRP B   6      15.495  91.882  63.146  1.00  0.00     0.001 A 
ATOM     28  HE1 TRP B   6      12.647  95.734  63.691  1.00  0.23     0.165 HD
ATOM     29  CD1 TRP B   6      12.020  94.197  64.979  1.00  0.00     0.096 A 
ENDBRANCH  19  20
ENDBRANCH  18  19
BRANCH  18  30
ATOM     30  C   TRP B   6      10.269  90.098  66.582  1.00  0.00     0.241 C 
ATOM     31  N   VAL B   7       9.127  89.483  66.292  1.00  6.11    -0.344 N 
ATOM     32  H   VAL B   7       8.637  89.743  65.485  1.00  0.23     0.163 HD
ATOM     33  O   TRP B   6      10.943  89.831  67.578  1.00  0.00    -0.271 OA
BRANCH  31  34
ATOM     34  CA  VAL B   7       8.586  88.432  67.145  1.00  5.65     0.189 C 
BRANCH  34  35
ATOM     35  CB  VAL B   7       7.103  88.693  67.477  1.00  1.15     0.010 C 
ATOM     36  CG1 VAL B   7       6.978  89.730  68.583  1.00  4.96     0.012 C 
ATOM     37  CG2 VAL B   7       6.343  89.134  66.235  1.00  9.83     0.012 C 
ENDBRANCH  34  35
BRANCH  34  38
ATOM     38  C   VAL B   7       8.715  87.064  66.482  1.00  4.44     0.197 C 
ATOM     39  OXT VAL B   7       8.975  87.019  65.263  1.00  0.00    -0.646 OA
ATOM     40  O   VAL B   7       8.556  86.048  67.192  1.00  0.00    -0.646 OA
ENDBRANCH  34  38
ENDBRANCH  31  34
ENDBRANCH  18  30
ENDBRANCH  15  18
ENDBRANCH   9  14
ENDBRANCH   7   9
ENDBRANCH   1   5
BRANCH   1  41
ATOM     41  N   CYS B   4       4.885  91.447  61.657  1.00  0.00    -0.345 N 
ATOM     42  C   PHE B   3       4.474  90.312  61.060  1.00  0.00     0.241 C 
ATOM     43  O   PHE B   3       4.792  90.043  59.890  1.00  0.00    -0.271 OA
ATOM     44  H   CYS B   4       4.608  91.629  62.577  1.00  0.00     0.163 HD
BRANCH  42  45
ATOM     45  CA  PHE B   3       3.630  89.350  61.862  1.00  0.00     0.180 C 
BRANCH  45  46
ATOM     46  N   PHE B   3       4.032  87.970  61.613  1.00  0.00    -0.346 N 
ATOM     47  H   PHE B   3       4.941  87.688  61.837  1.00  0.00     0.163 HD
ATOM     48  C   CYS B   2       3.179  87.073  61.082  1.00  0.00     0.241 C 
ATOM     49  O   CYS B   2       2.023  87.361  60.785  1.00  0.00    -0.271 OA
BRANCH  48  50
ATOM     50  CA  CYS B   2       3.743  85.693  60.836  1.00  0.00     0.185 C 
BRANCH  50  51
ATOM     51  CB  CYS B   2       3.768  84.831  62.114  1.00  0.00     0.105 C 
BRANCH  51  52
ATOM     52  SG  CYS B   2       2.143  84.102  62.426  1.00  0.00    -0.180 SA
ATOM     53  HG  CYS B   2       1.871  83.776  61.164  1.00  0.00     0.101 HD
ENDBRANCH  51  52
ENDBRANCH  50  51
BRANCH  50  54
ATOM     54  N   CYS B   2       5.100  85.770  60.302  1.00  0.00    -0.345 N 
ATOM     55  H   CYS B   2       5.862  85.759  60.923  1.00  0.00     0.163 HD
ATOM     56  C   LYS B   1       5.330  85.853  58.989  1.00  0.00     0.254 C 
ATOM     57  O   LYS B   1       4.416  85.818  58.158  1.00  0.00    -0.271 OA
BRANCH  56  58
ATOM     58  CA  LYS B   1       6.779  85.946  58.570  1.00  0.00     0.350 C 
BRANCH  58  59
ATOM     59  N   LYS B   1       7.113  84.900  57.607  1.00  0.00     0.312 N 
ATOM     60  H   LYS B   1       6.477  84.056  57.762  1.00  0.00     0.359 HD
ENDBRANCH  58  59
BRANCH  58  61
ATOM     61  CB  LYS B   1       7.090  87.337  57.951  1.00  0.00     0.048 C 
BRANCH  61  62
ATOM     62  CG  LYS B   1       7.547  88.386  58.995  1.00  0.00     0.004 C 
BRANCH  62  63
ATOM     63  CD  LYS B   1       8.254  87.807  60.224  1.00  0.00     0.027 C 
BRANCH  63  64
ATOM     64  CE  LYS B   1       7.656  88.431  61.492  1.00  0.00     0.229 C 
BRANCH  64  65
ATOM     65  NZ  LYS B   1       8.643  88.361  62.584  1.00  0.00    -0.079 N 
ATOM     66  HZ3 LYS B   1       8.198  87.855  63.337  1.00  0.00     0.274 HD
ATOM     67  HZ2 LYS B   1       8.927  89.297  62.891  1.00  0.00     0.274 HD
ATOM     68  HZ1 LYS B   1       9.500  87.891  62.269  1.00  0.00     0.274 HD
ENDBRANCH  64  65
ENDBRANCH  63  64
ENDBRANCH  62  63
ENDBRANCH  61  62
ENDBRANCH  58  61
ENDBRANCH  56  58
ENDBRANCH  50  54
ENDBRANCH  48  50
ENDBRANCH  45  46
BRANCH  45  69
ATOM     69  CB  PHE B   3       3.785  89.688  63.376  1.00  0.00     0.073 C 
BRANCH  69  70
ATOM     70  CG  PHE B   3       2.484  89.882  64.171  1.00  0.00    -0.056 A 
ATOM     71  CD2 PHE B   3       1.304  89.246  63.778  1.00  0.00     0.007 A 
ATOM     72  CE2 PHE B   3       0.151  89.374  64.548  1.00  0.00     0.001 A 
ATOM     73  CZ  PHE B   3       0.175  90.134  65.717  1.00  0.00     0.000 A 
ATOM     74  CE1 PHE B   3       1.348  90.771  66.113  1.00  0.00     0.001 A 
ATOM     75  CD1 PHE B   3       2.497  90.653  65.339  1.00  0.00     0.007 A 
ENDBRANCH  69  70
ENDBRANCH  45  69
ENDBRANCH  42  45
ENDBRANCH   1  41
TORSDOF 30
ENDMDL
MODEL 2
REMARK VINA RESULT:      -6.9      2.221      4.939
REMARK  30 active torsions:
REMARK  status: ('A' for Active; 'I' for Inactive)
REMARK    1  A    between atoms: N_1  and  CA_2 
REMARK    2  A    between atoms: CA_2  and  CB_5 
REMARK    3  A    between atoms: CA_2  and  C_3 
REMARK       I    between atoms: C_3  and  N_14 
REMARK    4  A    between atoms: CB_5  and  CG_6 
REMARK    5  A    between atoms: CG_6  and  CD_7 
REMARK    6  A    between atoms: CD_7  and  CE_8 
REMARK    7  A    between atoms: CE_8  and  NZ_9 
REMARK    8  A    between atoms: N_14  and  CA_15 
REMARK    9  A    between atoms: CA_15  and  CB_18 
REMARK   10  A    between atoms: CA_15  and  C_16 
REMARK       I    between atoms: C_16  and  N_22 
REMARK   11  A    between atoms: CB_18  and  SG_19 
REMARK   12  A    between atoms: N_22  and  CA_23 
REMARK   13  A    between atoms: CA_23  and  CB_26 
REMARK   14  A    between atoms: CA_23  and  C_24 
REMARK       I    between atoms: C_24  and  N_34 
REMARK   15  A    between atoms: CB_26  and  CG_27 
REMARK   16  A    between atoms: N_34  and  CA_35 
REMARK   17  A    between atoms: CA_35  and  CB_38 
REMARK   18  A    between atoms: CA_35  and  C_36 
REMARK       I    between atoms: C_36  and  N_48 
REMARK   19  A    between atoms: CB_38  and  SG_39 
REMARK   20  A    between atoms: CA_42  and  N_48 
REMARK   21  A    between atoms: CA_42  and  CB_44 
REMARK   22  A    between atoms: CA_42  and  C_43 
REMARK       I    between atoms: C_43  and  N_64 
REMARK   23  A    between atoms: CB_44  and  OG1_50 
REMARK   24  A    between atoms: CA_51  and  CB_53 
REMARK   25  A    between atoms: CA_51  and  N_64 
REMARK   26  A    between atoms: CA_51  and  C_52 
REMARK       I    between atoms: C_52  and  N_73 
REMARK   27  A    between atoms: CB_53  and  CG_54 
REMARK   28  A    between atoms: CA_67  and  N_73 
REMARK   29  A    between atoms: CA_67  and  CB_69 
REMARK   30  A    between atoms: CA_67  and  C_68 
ROOT
ATOM      1  CA  CYS B   4       6.303  92.092  61.123  1.00  0.00     0.185 C 
ENDROOT
BRANCH   1   2
ATOM      2  CB  CYS B   4       5.020  92.940  61.030  1.00  0.00     0.105 C 
BRANCH   2   3
ATOM      3  SG  CYS B   4       5.223  94.279  59.832  1.00  0.00    -0.180 SA
ATOM      4  HG  CYS B   4       6.546  94.381  59.931  1.00  0.00     0.101 HD
ENDBRANCH   2   3
ENDBRANCH   1   2
BRANCH   1   5
ATOM      5  C   CYS B   4       7.185  92.503  62.278  1.00  0.00     0.242 C 
ATOM      6  O   CYS B   4       8.177  93.209  62.082  1.00  0.00    -0.271 OA
ATOM      7  N   THR B   5       6.864  92.006  63.462  1.00  7.70    -0.344 N 
ATOM      8  H   THR B   5       6.071  91.435  63.540  1.00  0.23     0.163 HD
BRANCH   7   9
ATOM      9  CA  THR B   5       7.647  92.301  64.658  1.00  7.88     0.205 C 
BRANCH   9  10
ATOM     10  CB  THR B   5       6.722  92.638  65.828  1.00  4.05     0.146 C 
ATOM     11  CG2 THR B   5       5.422  93.281  65.396  1.00  3.72     0.042 C 
BRANCH  10  12
ATOM     12  OG1 THR B   5       6.400  91.471  66.563  1.00  7.31    -0.393 OA
ATOM     13  HG1 THR B   5       6.564  90.696  66.021  1.00  0.23     0.210 HD
ENDBRANCH  10  12
ENDBRANCH   9  10
BRANCH   9  14
ATOM     14  C   THR B   5       8.538  91.118  65.022  1.00  7.05     0.243 C 
ATOM     15  N   TRP B   6       9.454  91.338  65.960  1.00  0.00    -0.346 N 
ATOM     16  H   TRP B   6       9.517  92.226  66.368  1.00  0.23     0.163 HD
ATOM     17  O   THR B   5       8.400  90.030  64.464  1.00  6.06    -0.271 OA
BRANCH  15  18
ATOM     18  CA  TRP B   6      10.368  90.290  66.394  1.00  0.00     0.181 C 
BRANCH  18  19
ATOM     19  CB  TRP B   6      11.715  90.896  66.792  1.00  0.00     0.075 C 
BRANCH  19  20
ATOM     20  CG  TRP B   6      12.591  91.196  65.615  1.00  0.00    -0.028 A 
ATOM     21  CD2 TRP B   6      12.725  92.456  64.946  1.00  0.00    -0.002 A 
ATOM     22  CE2 TRP B   6      13.657  92.278  63.906  1.00  0.00     0.042 A 
ATOM     23  CE3 TRP B   6      12.145  93.714  65.124  1.00  0.00     0.014 A 
ATOM     24  CZ2 TRP B   6      14.023  93.313  63.051  1.00  0.00     0.030 A 
ATOM     25  NE1 TRP B   6      14.072  90.972  63.943  1.00  0.00    -0.365 N 
ATOM     26  CH2 TRP B   6      13.440  94.536  63.246  1.00  0.00     0.002 A 
ATOM     27  CZ3 TRP B   6      12.510  94.742  64.272  1.00  0.00     0.001 A 
ATOM     28  HE1 TRP B   6      14.722  90.562  63.334  1.00  0.23     0.165 HD
ATOM     29  CD1 TRP B   6      13.427  90.329  64.972  1.00  0.00     0.096 A 
ENDBRANCH  19  20
ENDBRANCH  18  19
BRANCH  18  30
ATOM     30  C   TRP B   6       9.781  89.502  67.560  1.00  0.00     0.241 C 
ATOM     31  N   VAL B   7       8.473  89.641  67.760  1.00  6.11    -0.344 N 
ATOM     32  H   VAL B   7       7.960  90.226  67.166  1.00  0.23     0.163 HD
ATOM     33  O   TRP B   6      10.496  88.788  68.264  1.00  0.00    -0.271 OA
BRANCH  31  34
ATOM     34  CA  VAL B   7       7.786  88.947  68.842  1.00  5.65     0.189 C 
BRANCH  34  35
ATOM     35  CB  VAL B   7       7.283  89.939  69.909  1.00  1.15     0.010 C 
ATOM     36  CG1 VAL B   7       6.477  89.212  70.976  1.00  4.96     0.012 C 
ATOM     37  CG2 VAL B   7       8.447  90.694  70.533  1.00  9.83     0.012 C 
ENDBRANCH  34  35
BRANCH  34  38
ATOM     38  C   VAL B   7       6.603  88.140  68.314  1.00  4.44     0.197 C 
ATOM     39  OXT VAL B   7       5.720  88.738  67.668  1.00  0.00    -0.646 OA
ATOM     40  O   VAL B   7       6.574  86.914  68.553  1.00  0.00    -0.646 OA
ENDBRANCH  34  38
ENDBRANCH  31  34
ENDBRANCH  18  30
ENDBRANCH  15  18
ENDBRANCH   9  14
ENDBRANCH   7   9
ENDBRANCH   1   5
BRANCH   1  41
ATOM     41  N   CYS B   4       5.922  90.686  61.230  1.00  0.00    -0.345 N 
ATOM     42  C   PHE B   3       6.129  89.818  60.221  1.00  0.00     0.241 C 
ATOM     43  O   PHE B   3       6.645  90.178  59.151  1.00  0.00    -0.271 OA
ATOM     44  H   CYS B   4       5.506  90.367  62.056  1.00  0.00     0.163 HD
BRANCH  42  45
ATOM     45  CA  PHE B   3       5.741  88.374  60.434  1.00  0.00     0.180 C 
BRANCH  45  46
ATOM     46  N   PHE B   3       4.502  88.273  61.198  1.00  0.00    -0.346 N 
ATOM     47  H   PHE B   3       3.645  88.330  60.730  1.00  0.00     0.163 HD
ATOM     48  C   CYS B   2       4.510  88.101  62.533  1.00  0.00     0.241 C 
ATOM     49  O   CYS B   2       5.550  88.015  63.179  1.00  0.00    -0.271 OA
BRANCH  48  50
ATOM     50  CA  CYS B   2       3.154  88.058  63.201  1.00  0.00     0.185 C 
BRANCH  50  51
ATOM     51  CB  CYS B   2       3.164  88.715  64.595  1.00  0.00     0.105 C 
BRANCH  51  52
ATOM     52  SG  CYS B   2       3.305  90.511  64.455  1.00  0.00    -0.180 SA
ATOM     53  HG  CYS B   2       2.050  90.796  64.795  1.00  0.00     0.101 HD
ENDBRANCH  51  52
ENDBRANCH  50  51
BRANCH  50  54
ATOM     54  N   CYS B   2       2.683  86.683  63.338  1.00  0.00    -0.345 N 
ATOM     55  H   CYS B   2       2.861  86.195  64.173  1.00  0.00     0.163 HD
ATOM     56  C   LYS B   1       2.014  86.072  62.356  1.00  0.00     0.254 C 
ATOM     57  O   LYS B   1       1.715  86.651  61.306  1.00  0.00    -0.271 OA
BRANCH  56  58
ATOM     58  CA  LYS B   1       1.600  84.643  62.619  1.00  0.00     0.350 C 
BRANCH  58  59
ATOM     59  N   LYS B   1       1.593  83.865  61.384  1.00  0.00     0.312 N 
ATOM     60  H   LYS B   1       1.972  82.886  61.577  1.00  0.00     0.359 HD
ENDBRANCH  58  59
BRANCH  58  61
ATOM     61  CB  LYS B   1       2.548  83.971  63.650  1.00  0.00     0.048 C 
BRANCH  61  62
ATOM     62  CG  LYS B   1       3.228  82.686  63.114  1.00  0.00     0.004 C 
BRANCH  62  63
ATOM     63  CD  LYS B   1       3.055  81.449  63.998  1.00  0.00     0.027 C 
BRANCH  63  64
ATOM     64  CE  LYS B   1       2.351  80.347  63.195  1.00  0.00     0.229 C 
BRANCH  64  65
ATOM     65  NZ  LYS B   1       0.979  80.776  62.873  1.00  0.00    -0.079 N 
ATOM     66  HZ3 LYS B   1       0.951  80.910  61.872  1.00  0.00     0.274 HD
ATOM     67  HZ2 LYS B   1       0.733  81.642  63.363  1.00  0.00     0.274 HD
ATOM     68  HZ1 LYS B   1       0.297  80.072  63.178  1.00  0.00     0.274 HD
ENDBRANCH  64  65
ENDBRANCH  63  64
ENDBRANCH  62  63
ENDBRANCH  61  62
ENDBRANCH  58  61
ENDBRANCH  56  58
ENDBRANCH  50  54
ENDBRANCH  48  50
ENDBRANCH  45  46
BRANCH  45  69
ATOM     69  CB  PHE B   3       5.570  87.690  59.044  1.00  0.00     0.073 C 
BRANCH  69  70
ATOM     70  CG  PHE B   3       6.240  86.318  58.868  1.00  0.00    -0.056 A 
ATOM     71  CD2 PHE B   3       6.784  85.940  57.639  1.00  0.00     0.007 A 
ATOM     72  CE2 PHE B   3       7.450  84.723  57.513  1.00  0.00     0.001 A 
ATOM     73  CZ  PHE B   3       7.579  83.883  58.618  1.00  0.00     0.000 A 
ATOM     74  CE1 PHE B   3       7.038  84.254  59.847  1.00  0.00     0.001 A 
ATOM     75  CD1 PHE B   3       6.363  85.463  59.970  1.00  0.00     0.007 A 
ENDBRANCH  69  70
ENDBRANCH  45  69
ENDBRANCH  42  45
ENDBRANCH   1  41
TORSDOF 30
ENDMDL
MODEL 3
REMARK VINA RESULT:      -6.4      2.172      5.271
REMARK  30 active torsions:
REMARK  status: ('A' for Active; 'I' for Inactive)
REMARK    1  A    between atoms: N_1  and  CA_2 
REMARK    2  A    between atoms: CA_2  and  CB_5 
REMARK    3  A    between atoms: CA_2  and  C_3 
REMARK       I    between atoms: C_3  and  N_14 
REMARK    4  A    between atoms: CB_5  and  CG_6 
REMARK    5  A    between atoms: CG_6  and  CD_7 
REMARK    6  A    between atoms: CD_7  and  CE_8 
REMARK    7  A    between atoms: CE_8  and  NZ_9 
REMARK    8  A    between atoms: N_14  and  CA_15 
REMARK    9  A    between atoms: CA_15  and  CB_18 
REMARK   10  A    between atoms: CA_15  and  C_16 
REMARK       I    between atoms: C_16  and  N_22 
REMARK   11  A    between atoms: CB_18  and  SG_19 
REMARK   12  A    between atoms: N_22  and  CA_23 
REMARK   13  A    between atoms: CA_23  and  CB_26 
REMARK   14  A    between atoms: CA_23  and  C_24 
REMARK       I    between atoms: C_24  and  N_34 
REMARK   15  A    between atoms: CB_26  and  CG_27 
REMARK   16  A    between atoms: N_34  and  CA_35 
REMARK   17  A    between atoms: CA_35  and  CB_38 
REMARK   18  A    between atoms: CA_35  and  C_36 
REMARK       I    between atoms: C_36  and  N_48 
REMARK   19  A    between atoms: CB_38  and  SG_39 
REMARK   20  A    between atoms: CA_42  and  N_48 
REMARK   21  A    between atoms: CA_42  and  CB_44 
REMARK   22  A    between atoms: CA_42  and  C_43 
REMARK       I    between atoms: C_43  and  N_64 
REMARK   23  A    between atoms: CB_44  and  OG1_50 
REMARK   24  A    between atoms: CA_51  and  CB_53 
REMARK   25  A    between atoms: CA_51  and  N_64 
REMARK   26  A    between atoms: CA_51  and  C_52 
REMARK       I    between atoms: C_52  and  N_73 
REMARK   27  A    between atoms: CB_53  and  CG_54 
REMARK   28  A    between atoms: CA_67  and  N_73 
REMARK   29  A    between atoms: CA_67  and  CB_69 
REMARK   30  A    between atoms: CA_67  and  C_68 
ROOT
ATOM      1  CA  CYS B   4       6.298  92.209  60.898  1.00  0.00     0.185 C 
ENDROOT
BRANCH   1   2
ATOM      2  CB  CYS B   4       5.103  93.155  60.674  1.00  0.00     0.105 C 
BRANCH   2   3
ATOM      3  SG  CYS B   4       5.532  94.461  59.501  1.00  0.00    -0.180 SA
ATOM      4  HG  CYS B   4       4.833  95.433  60.082  1.00  0.00     0.101 HD
ENDBRANCH   2   3
ENDBRANCH   1   2
BRANCH   1   5
ATOM      5  C   CYS B   4       7.150  92.623  62.074  1.00  0.00     0.242 C 
ATOM      6  O   CYS B   4       8.180  93.277  61.896  1.00  0.00    -0.271 OA
ATOM      7  N   THR B   5       6.759  92.183  63.259  1.00  7.70    -0.344 N 
ATOM      8  H   THR B   5       5.939  91.651  63.324  1.00  0.23     0.163 HD
BRANCH   7   9
ATOM      9  CA  THR B   5       7.505  92.487  64.477  1.00  7.88     0.205 C 
BRANCH   9  10
ATOM     10  CB  THR B   5       6.554  92.959  65.578  1.00  4.05     0.146 C 
ATOM     11  CG2 THR B   5       5.112  93.036  65.129  1.00  3.72     0.042 C 
BRANCH  10  12
ATOM     12  OG1 THR B   5       6.610  92.088  66.694  1.00  7.31    -0.393 OA
ATOM     13  HG1 THR B   5       6.358  92.568  67.487  1.00  0.23     0.210 HD
ENDBRANCH  10  12
ENDBRANCH   9  10
BRANCH   9  14
ATOM     14  C   THR B   5       8.283  91.263  64.950  1.00  7.05     0.243 C 
ATOM     15  N   TRP B   6       9.300  91.494  65.773  1.00  0.00    -0.346 N 
ATOM     16  H   TRP B   6       9.502  92.416  66.037  1.00  0.23     0.163 HD
ATOM     17  O   THR B   5       7.970  90.134  64.574  1.00  6.06    -0.271 OA
BRANCH  15  18
ATOM     18  CA  TRP B   6      10.123  90.410  66.293  1.00  0.00     0.181 C 
BRANCH  18  19
ATOM     19  CB  TRP B   6      11.475  90.951  66.761  1.00  0.00     0.075 C 
BRANCH  19  20
ATOM     20  CG  TRP B   6      12.426  91.203  65.631  1.00  0.00    -0.028 A 
ATOM     21  CD2 TRP B   6      12.650  92.451  64.963  1.00  0.00    -0.002 A 
ATOM     22  CE2 TRP B   6      13.628  92.224  63.976  1.00  0.00     0.042 A 
ATOM     23  CE3 TRP B   6      12.118  93.735  65.103  1.00  0.00     0.014 A 
ATOM     24  CZ2 TRP B   6      14.085  93.236  63.136  1.00  0.00     0.030 A 
ATOM     25  NE1 TRP B   6      13.982  90.901  64.041  1.00  0.00    -0.365 N 
ATOM     26  CH2 TRP B   6      13.547  94.484  63.294  1.00  0.00     0.002 A 
ATOM     27  CZ3 TRP B   6      12.574  94.739  64.267  1.00  0.00     0.001 A 
ATOM     28  HE1 TRP B   6      14.645  90.459  63.471  1.00  0.23     0.165 HD
ATOM     29  CD1 TRP B   6      13.255  90.296  65.038  1.00  0.00     0.096 A 
ENDBRANCH  19  20
ENDBRANCH  18  19
BRANCH  18  30
ATOM     30  C   TRP B   6       9.419  89.692  67.440  1.00  0.00     0.241 C 
ATOM     31  N   VAL B   7       9.894  88.491  67.757  1.00  6.11    -0.344 N 
ATOM     32  H   VAL B   7      10.654  88.131  67.255  1.00  0.23     0.163 HD
ATOM     33  O   TRP B   6       8.466  90.213  68.020  1.00  0.00    -0.271 OA
BRANCH  31  34
ATOM     34  CA  VAL B   7       9.311  87.696  68.830  1.00  5.65     0.189 C 
BRANCH  34  35
ATOM     35  CB  VAL B   7       8.668  88.596  69.904  1.00  1.15     0.010 C 
ATOM     36  CG1 VAL B   7       7.388  87.966  70.433  1.00  4.96     0.012 C 
ATOM     37  CG2 VAL B   7       9.647  88.863  71.038  1.00  9.83     0.012 C 
ENDBRANCH  34  35
BRANCH  34  38
ATOM     38  C   VAL B   7       8.258  86.732  68.293  1.00  4.44     0.197 C 
ATOM     39  OXT VAL B   7       7.363  87.186  67.551  1.00  0.00    -0.646 OA
ATOM     40  O   VAL B   7       8.339  85.529  68.619  1.00  0.00    -0.646 OA
ENDBRANCH  34  38
ENDBRANCH  31  34
ENDBRANCH  18  30
ENDBRANCH  15  18
ENDBRANCH   9  14
ENDBRANCH   7   9
ENDBRANCH   1   5
BRANCH   1  41
ATOM     41  N   CYS B   4       5.789  90.851  61.072  1.00  0.00    -0.345 N 
ATOM     42  C   PHE B   3       6.193  89.837  60.285  1.00  0.00     0.241 C 
ATOM     43  O   PHE B   3       7.012  90.014  59.368  1.00  0.00    -0.271 OA
ATOM     44  H   CYS B   4       5.137  90.675  61.780  1.00  0.00     0.163 HD
BRANCH  42  45
ATOM     45  CA  PHE B   3       5.645  88.457  60.562  1.00  0.00     0.180 C 
BRANCH  45  46
ATOM     46  N   PHE B   3       4.442  88.529  61.385  1.00  0.00    -0.346 N 
ATOM     47  H   PHE B   3       3.844  89.297  61.292  1.00  0.00     0.163 HD
ATOM     48  C   CYS B   2       4.135  87.562  62.269  1.00  0.00     0.241 C 
ATOM     49  O   CYS B   2       4.840  86.570  62.430  1.00  0.00    -0.271 OA
BRANCH  48  50
ATOM     50  CA  CYS B   2       2.883  87.788  63.086  1.00  0.00     0.185 C 
BRANCH  50  51
ATOM     51  CB  CYS B   2       2.048  88.974  62.566  1.00  0.00     0.105 C 
BRANCH  51  52
ATOM     52  SG  CYS B   2       0.317  88.802  63.059  1.00  0.00    -0.180 SA
ATOM     53  HG  CYS B   2       0.131  90.066  63.430  1.00  0.00     0.101 HD
ENDBRANCH  51  52
ENDBRANCH  50  51
BRANCH  50  54
ATOM     54  N   CYS B   2       3.212  88.032  64.488  1.00  0.00    -0.345 N 
ATOM     55  H   CYS B   2       2.799  87.471  65.183  1.00  0.00     0.163 HD
ATOM     56  C   LYS B   1       4.060  88.998  64.850  1.00  0.00     0.254 C 
ATOM     57  O   LYS B   1       4.649  89.699  64.020  1.00  0.00    -0.271 OA
BRANCH  56  58
ATOM     58  CA  LYS B   1       4.299  89.157  66.334  1.00  0.00     0.350 C 
BRANCH  58  59
ATOM     59  N   LYS B   1       5.705  89.439  66.610  1.00  0.00     0.312 N 
ATOM     60  H   LYS B   1       6.244  89.503  65.691  1.00  0.00     0.359 HD
ENDBRANCH  58  59
BRANCH  58  61
ATOM     61  CB  LYS B   1       3.418  90.294  66.919  1.00  0.00     0.048 C 
BRANCH  61  62
ATOM     62  CG  LYS B   1       1.947  89.873  67.156  1.00  0.00     0.004 C 
BRANCH  62  63
ATOM     63  CD  LYS B   1       0.901  90.871  66.649  1.00  0.00     0.027 C 
BRANCH  63  64
ATOM     64  CE  LYS B   1       1.345  92.296  67.009  1.00  0.00     0.229 C 
BRANCH  64  65
ATOM     65  NZ  LYS B   1       0.274  92.966  67.767  1.00  0.00    -0.079 N 
ATOM     66  HZ3 LYS B   1      -0.454  93.180  67.100  1.00  0.00     0.274 HD
ATOM     67  HZ2 LYS B   1       0.616  93.820  68.220  1.00  0.00     0.274 HD
ATOM     68  HZ1 LYS B   1      -0.070  92.360  68.521  1.00  0.00     0.274 HD
ENDBRANCH  64  65
ENDBRANCH  63  64
ENDBRANCH  62  63
ENDBRANCH  61  62
ENDBRANCH  58  61
ENDBRANCH  56  58
ENDBRANCH  50  54
ENDBRANCH  48  50
ENDBRANCH  45  46
BRANCH  45  69
ATOM     69  CB  PHE B   3       5.324  87.762  59.205  1.00  0.00     0.073 C 
BRANCH  69  70
ATOM     70  CG  PHE B   3       6.152  86.512  58.863  1.00  0.00    -0.056 A 
ATOM     71  CD2 PHE B   3       6.461  85.568  59.845  1.00  0.00     0.007 A 
ATOM     72  CE2 PHE B   3       7.150  84.406  59.507  1.00  0.00     0.001 A 
ATOM     73  CZ  PHE B   3       7.529  84.182  58.185  1.00  0.00     0.000 A 
ATOM     74  CE1 PHE B   3       7.225  85.120  57.201  1.00  0.00     0.001 A 
ATOM     75  CD1 PHE B   3       6.546  86.284  57.540  1.00  0.00     0.007 A 
ENDBRANCH  69  70
ENDBRANCH  45  69
ENDBRANCH  42  45
ENDBRANCH   1  41
TORSDOF 30
ENDMDL
MODEL 4
REMARK VINA RESULT:      -4.9      3.078      5.660
REMARK  30 active torsions:
REMARK  status: ('A' for Active; 'I' for Inactive)
REMARK    1  A    between atoms: N_1  and  CA_2 
REMARK    2  A    between atoms: CA_2  and  CB_5 
REMARK    3  A    between atoms: CA_2  and  C_3 
REMARK       I    between atoms: C_3  and  N_14 
REMARK    4  A    between atoms: CB_5  and  CG_6 
REMARK    5  A    between atoms: CG_6  and  CD_7 
REMARK    6  A    between atoms: CD_7  and  CE_8 
REMARK    7  A    between atoms: CE_8  and  NZ_9 
REMARK    8  A    between atoms: N_14  and  CA_15 
REMARK    9  A    between atoms: CA_15  and  CB_18 
REMARK   10  A    between atoms: CA_15  and  C_16 
REMARK       I    between atoms: C_16  and  N_22 
REMARK   11  A    between atoms: CB_18  and  SG_19 
REMARK   12  A    between atoms: N_22  and  CA_23 
REMARK   13  A    between atoms: CA_23  and  CB_26 
REMARK   14  A    between atoms: CA_23  and  C_24 
REMARK       I    between atoms: C_24  and  N_34 
REMARK   15  A    between atoms: CB_26  and  CG_27 
REMARK   16  A    between atoms: N_34  and  CA_35 
REMARK   17  A    between atoms: CA_35  and  CB_38 
REMARK   18  A    between atoms: CA_35  and  C_36 
REMARK       I    between atoms: C_36  and  N_48 
REMARK   19  A    between atoms: CB_38  and  SG_39 
REMARK   20  A    between atoms: CA_42  and  N_48 
REMARK   21  A    between atoms: CA_42  and  CB_44 
REMARK   22  A    between atoms: CA_42  and  C_43 
REMARK       I    between atoms: C_43  and  N_64 
REMARK   23  A    between atoms: CB_44  and  OG1_50 
REMARK   24  A    between atoms: CA_51  and  CB_53 
REMARK   25  A    between atoms: CA_51  and  N_64 
REMARK   26  A    between atoms: CA_51  and  C_52 
REMARK       I    between atoms: C_52  and  N_73 
REMARK   27  A    between atoms: CB_53  and  CG_54 
REMARK   28  A    between atoms: CA_67  and  N_73 
REMARK   29  A    between atoms: CA_67  and  CB_69 
REMARK   30  A    between atoms: CA_67  and  C_68 
ROOT
ATOM      1  CA  CYS B   4       5.043  91.944  61.906  1.00  0.00     0.185 C 
ENDROOT
BRANCH   1   2
ATOM      2  CB  CYS B   4       4.510  93.121  61.067  1.00  0.00     0.105 C 
BRANCH   2   3
ATOM      3  SG  CYS B   4       4.312  92.634  59.337  1.00  0.00    -0.180 SA
ATOM      4  HG  CYS B   4       3.349  93.502  59.037  1.00  0.00     0.101 HD
ENDBRANCH   2   3
ENDBRANCH   1   2
BRANCH   1   5
ATOM      5  C   CYS B   4       5.783  92.403  63.140  1.00  0.00     0.242 C 
ATOM      6  O   CYS B   4       6.002  93.603  63.324  1.00  0.00    -0.271 OA
ATOM      7  N   THR B   5       6.225  91.449  63.943  1.00  7.70    -0.344 N 
ATOM      8  H   THR B   5       6.030  90.513  63.725  1.00  0.23     0.163 HD
BRANCH   7   9
ATOM      9  CA  THR B   5       6.977  91.752  65.157  1.00  7.88     0.205 C 
BRANCH   9  10
ATOM     10  CB  THR B   5       6.024  91.945  66.338  1.00  4.05     0.146 C 
ATOM     11  CG2 THR B   5       4.597  91.553  66.024  1.00  3.72     0.042 C 
BRANCH  10  12
ATOM     12  OG1 THR B   5       6.445  91.177  67.452  1.00  7.31    -0.393 OA
ATOM     13  HG1 THR B   5       7.231  90.679  67.218  1.00  0.23     0.210 HD
ENDBRANCH  10  12
ENDBRANCH   9  10
BRANCH   9  14
ATOM     14  C   THR B   5       7.969  90.635  65.467  1.00  7.05     0.243 C 
ATOM     15  N   TRP B   6       9.004  90.964  66.233  1.00  0.00    -0.346 N 
ATOM     16  H   TRP B   6       9.084  91.884  66.560  1.00  0.23     0.163 HD
ATOM     17  O   THR B   5       7.802  89.502  65.019  1.00  6.06    -0.271 OA
BRANCH  15  18
ATOM     18  CA  TRP B   6      10.024  89.989  66.598  1.00  0.00     0.181 C 
BRANCH  18  19
ATOM     19  CB  TRP B   6      11.308  90.702  67.022  1.00  0.00     0.075 C 
BRANCH  19  20
ATOM     20  CG  TRP B   6      12.218  91.001  65.870  1.00  0.00    -0.028 A 
ATOM     21  CD2 TRP B   6      12.356  92.255  65.190  1.00  0.00    -0.002 A 
ATOM     22  CE2 TRP B   6      13.324  92.078  64.183  1.00  0.00     0.042 A 
ATOM     23  CE3 TRP B   6      11.754  93.507  65.334  1.00  0.00     0.014 A 
ATOM     24  CZ2 TRP B   6      13.703  93.108  63.327  1.00  0.00     0.030 A 
ATOM     25  NE1 TRP B   6      13.754  90.778  64.248  1.00  0.00    -0.365 N 
ATOM     26  CH2 TRP B   6      13.098  94.325  63.490  1.00  0.00     0.002 A 
ATOM     27  CZ3 TRP B   6      12.132  94.530  64.483  1.00  0.00     0.001 A 
ATOM     28  HE1 TRP B   6      14.429  90.371  63.665  1.00  0.23     0.165 HD
ATOM     29  CD1 TRP B   6      13.085  90.138  65.263  1.00  0.00     0.096 A 
ENDBRANCH  19  20
ENDBRANCH  18  19
BRANCH  18  30
ATOM     30  C   TRP B   6       9.532  89.079  67.720  1.00  0.00     0.241 C 
ATOM     31  N   VAL B   7       9.995  87.833  67.706  1.00  6.11    -0.344 N 
ATOM     32  H   VAL B   7      10.613  87.561  66.997  1.00  0.23     0.163 HD
ATOM     33  O   TRP B   6       8.750  89.497  68.574  1.00  0.00    -0.271 OA
BRANCH  31  34
ATOM     34  CA  VAL B   7       9.603  86.860  68.718  1.00  5.65     0.189 C 
BRANCH  34  35
ATOM     35  CB  VAL B   7       9.287  87.549  70.060  1.00  1.15     0.010 C 
ATOM     36  CG1 VAL B   7       8.190  86.797  70.801  1.00  4.96     0.012 C 
ATOM     37  CG2 VAL B   7      10.539  87.657  70.917  1.00  9.83     0.012 C 
ENDBRANCH  34  35
BRANCH  34  38
ATOM     38  C   VAL B   7       8.384  86.059  68.269  1.00  4.44     0.197 C 
ATOM     39  OXT VAL B   7       8.432  84.815  68.347  1.00  0.00    -0.646 OA
ATOM     40  O   VAL B   7       7.391  86.686  67.845  1.00  0.00    -0.646 OA
ENDBRANCH  34  38
ENDBRANCH  31  34
ENDBRANCH  18  30
ENDBRANCH  15  18
ENDBRANCH   9  14
ENDBRANCH   7   9
ENDBRANCH   1   5
BRANCH   1  41
ATOM     41  N   CYS B   4       3.920  91.080  62.260  1.00  0.00    -0.345 N 
ATOM     42  C   PHE B   3       4.034  89.738  62.266  1.00  0.00     0.241 C 
ATOM     43  O   PHE B   3       5.099  89.176  61.961  1.00  0.00    -0.271 OA
ATOM     44  H   CYS B   4       3.063  91.487  62.498  1.00  0.00     0.163 HD
BRANCH  42  45
ATOM     45  CA  PHE B   3       2.833  88.923  62.683  1.00  0.00     0.180 C 
BRANCH  45  46
ATOM     46  N   PHE B   3       2.250  89.445  63.916  1.00  0.00    -0.346 N 
ATOM     47  H   PHE B   3       2.369  90.389  64.138  1.00  0.00     0.163 HD
ATOM     48  C   CYS B   2       1.552  88.656  64.753  1.00  0.00     0.241 C 
ATOM     49  O   CYS B   2       1.362  87.464  64.529  1.00  0.00    -0.271 OA
BRANCH  48  50
ATOM     50  CA  CYS B   2       1.045  89.318  66.014  1.00  0.00     0.185 C 
BRANCH  50  51
ATOM     51  CB  CYS B   2       0.451  90.714  65.747  1.00  0.00     0.105 C 
BRANCH  51  52
ATOM     52  SG  CYS B   2       0.808  91.835  67.120  1.00  0.00    -0.180 SA
ATOM     53  HG  CYS B   2       2.037  92.171  66.736  1.00  0.00     0.101 HD
ENDBRANCH  51  52
ENDBRANCH  50  51
BRANCH  50  54
ATOM     54  N   CYS B   2       2.113  89.448  67.001  1.00  0.00    -0.345 N 
ATOM     55  H   CYS B   2       2.669  90.259  67.004  1.00  0.00     0.163 HD
ATOM     56  C   LYS B   1       2.353  88.491  67.903  1.00  0.00     0.254 C 
ATOM     57  O   LYS B   1       1.655  87.475  67.982  1.00  0.00    -0.271 OA
BRANCH  56  58
ATOM     58  CA  LYS B   1       3.498  88.743  68.855  1.00  0.00     0.350 C 
BRANCH  58  59
ATOM     59  N   LYS B   1       3.568  90.152  69.228  1.00  0.00     0.312 N 
ATOM     60  H   LYS B   1       2.591  90.581  69.192  1.00  0.00     0.359 HD
ENDBRANCH  58  59
BRANCH  58  61
ATOM     61  CB  LYS B   1       3.356  87.875  70.135  1.00  0.00     0.048 C 
BRANCH  61  62
ATOM     62  CG  LYS B   1       4.495  86.839  70.307  1.00  0.00     0.004 C 
BRANCH  62  63
ATOM     63  CD  LYS B   1       4.314  85.545  69.509  1.00  0.00     0.027 C 
BRANCH  63  64
ATOM     64  CE  LYS B   1       5.304  84.491  70.024  1.00  0.00     0.229 C 
BRANCH  64  65
ATOM     65  NZ  LYS B   1       4.674  83.160  69.971  1.00  0.00    -0.079 N 
ATOM     66  HZ3 LYS B   1       3.996  83.136  70.720  1.00  0.00     0.274 HD
ATOM     67  HZ2 LYS B   1       5.367  82.414  70.082  1.00  0.00     0.274 HD
ATOM     68  HZ1 LYS B   1       4.231  83.005  69.057  1.00  0.00     0.274 HD
ENDBRANCH  64  65
ENDBRANCH  63  64
ENDBRANCH  62  63
ENDBRANCH  61  62
ENDBRANCH  58  61
ENDBRANCH  56  58
ENDBRANCH  50  54
ENDBRANCH  48  50
ENDBRANCH  45  46
BRANCH  45  69
ATOM     69  CB  PHE B   3       1.779  88.959  61.536  1.00  0.00     0.073 C 
BRANCH  69  70
ATOM     70  CG  PHE B   3       1.996  87.975  60.375  1.00  0.00    -0.056 A 
ATOM     71  CD2 PHE B   3       2.663  86.765  60.578  1.00  0.00     0.007 A 
ATOM     72  CE2 PHE B   3       2.791  85.852  59.534  1.00  0.00     0.001 A 
ATOM     73  CZ  PHE B   3       2.248  86.145  58.284  1.00  0.00     0.000 A 
ATOM     74  CE1 PHE B   3       1.583  87.351  58.074  1.00  0.00     0.001 A 
ATOM     75  CD1 PHE B   3       1.465  88.266  59.113  1.00  0.00     0.007 A 
ENDBRANCH  69  70
ENDBRANCH  45  69
ENDBRANCH  42  45
ENDBRANCH   1  41
TORSDOF 30
ENDMDL
MODEL 5
REMARK VINA RESULT:      -4.7      3.040      5.823
REMARK  30 active torsions:
REMARK  status: ('A' for Active; 'I' for Inactive)
REMARK    1  A    between atoms: N_1  and  CA_2 
REMARK    2  A    between atoms: CA_2  and  CB_5 
REMARK    3  A    between atoms: CA_2  and  C_3 
REMARK       I    between atoms: C_3  and  N_14 
REMARK    4  A    between atoms: CB_5  and  CG_6 
REMARK    5  A    between atoms: CG_6  and  CD_7 
REMARK    6  A    between atoms: CD_7  and  CE_8 
REMARK    7  A    between atoms: CE_8  and  NZ_9 
REMARK    8  A    between atoms: N_14  and  CA_15 
REMARK    9  A    between atoms: CA_15  and  CB_18 
REMARK   10  A    between atoms: CA_15  and  C_16 
REMARK       I    between atoms: C_16  and  N_22 
REMARK   11  A    between atoms: CB_18  and  SG_19 
REMARK   12  A    between atoms: N_22  and  CA_23 
REMARK   13  A    between atoms: CA_23  and  CB_26 
REMARK   14  A    between atoms: CA_23  and  C_24 
REMARK       I    between atoms: C_24  and  N_34 
REMARK   15  A    between atoms: CB_26  and  CG_27 
REMARK   16  A    between atoms: N_34  and  CA_35 
REMARK   17  A    between atoms: CA_35  and  CB_38 
REMARK   18  A    between atoms: CA_35  and  C_36 
REMARK       I    between atoms: C_36  and  N_48 
REMARK   19  A    between atoms: CB_38  and  SG_39 
REMARK   20  A    between atoms: CA_42  and  N_48 
REMARK   21  A    between atoms: CA_42  and  CB_44 
REMARK   22  A    between atoms: CA_42  and  C_43 
REMARK       I    between atoms: C_43  and  N_64 
REMARK   23  A    between atoms: CB_44  and  OG1_50 
REMARK   24  A    between atoms: CA_51  and  CB_53 
REMARK   25  A    between atoms: CA_51  and  N_64 
REMARK   26  A    between atoms: CA_51  and  C_52 
REMARK       I    between atoms: C_52  and  N_73 
REMARK   27  A    between atoms: CB_53  and  CG_54 
REMARK   28  A    between atoms: CA_67  and  N_73 
REMARK   29  A    between atoms: CA_67  and  CB_69 
REMARK   30  A    between atoms: CA_67  and  C_68 
ROOT
ATOM      1  CA  CYS B   4       5.375  91.618  61.801  1.00  0.00     0.185 C 
ENDROOT
BRANCH   1   2
ATOM      2  CB  CYS B   4       4.879  92.705  60.828  1.00  0.00     0.105 C 
BRANCH   2   3
ATOM      3  SG  CYS B   4       4.269  91.963  59.296  1.00  0.00    -0.180 SA
ATOM      4  HG  CYS B   4       2.973  92.061  59.577  1.00  0.00     0.101 HD
ENDBRANCH   2   3
ENDBRANCH   1   2
BRANCH   1   5
ATOM      5  C   CYS B   4       6.062  92.199  63.014  1.00  0.00     0.242 C 
ATOM      6  O   CYS B   4       6.336  93.400  63.058  1.00  0.00    -0.271 OA
ATOM      7  N   THR B   5       6.400  91.338  63.960  1.00  7.70    -0.344 N 
ATOM      8  H   THR B   5       6.167  90.392  63.849  1.00  0.23     0.163 HD
BRANCH   7   9
ATOM      9  CA  THR B   5       7.092  91.760  65.174  1.00  7.88     0.205 C 
BRANCH   9  10
ATOM     10  CB  THR B   5       6.108  91.852  66.341  1.00  4.05     0.146 C 
ATOM     11  CG2 THR B   5       4.669  91.632  65.928  1.00  3.72     0.042 C 
BRANCH  10  12
ATOM     12  OG1 THR B   5       6.420  90.893  67.336  1.00  7.31    -0.393 OA
ATOM     13  HG1 THR B   5       6.802  90.116  66.922  1.00  0.23     0.210 HD
ENDBRANCH  10  12
ENDBRANCH   9  10
BRANCH   9  14
ATOM     14  C   THR B   5       8.217  90.789  65.517  1.00  7.05     0.243 C 
ATOM     15  N   TRP B   6       9.227  91.284  66.223  1.00  0.00    -0.346 N 
ATOM     16  H   TRP B   6       9.208  92.227  66.488  1.00  0.23     0.163 HD
ATOM     17  O   THR B   5       8.171  89.616  65.146  1.00  6.06    -0.271 OA
BRANCH  15  18
ATOM     18  CA  TRP B   6      10.364  90.459  66.611  1.00  0.00     0.181 C 
BRANCH  18  19
ATOM     19  CB  TRP B   6      11.615  91.325  66.768  1.00  0.00     0.075 C 
BRANCH  19  20
ATOM     20  CG  TRP B   6      12.482  91.326  65.546  1.00  0.00    -0.028 A 
ATOM     21  CD2 TRP B   6      12.777  92.449  64.706  1.00  0.00    -0.002 A 
ATOM     22  CE2 TRP B   6      13.633  91.991  63.686  1.00  0.00     0.042 A 
ATOM     23  CE3 TRP B   6      12.400  93.794  64.717  1.00  0.00     0.014 A 
ATOM     24  CZ2 TRP B   6      14.117  92.834  62.689  1.00  0.00     0.030 A 
ATOM     25  NE1 TRP B   6      13.848  90.654  63.897  1.00  0.00    -0.365 N 
ATOM     26  CH2 TRP B   6      13.732  94.146  62.723  1.00  0.00     0.002 A 
ATOM     27  CZ3 TRP B   6      12.882  94.629  63.725  1.00  0.00     0.001 A 
ATOM     28  HE1 TRP B   6      14.407  90.072  63.340  1.00  0.23     0.165 HD
ATOM     29  CD1 TRP B   6      13.153  90.263  65.016  1.00  0.00     0.096 A 
ENDBRANCH  19  20
ENDBRANCH  18  19
BRANCH  18  30
ATOM     30  C   TRP B   6      10.077  89.710  67.908  1.00  0.00     0.241 C 
ATOM     31  N   VAL B   7      10.393  88.419  67.919  1.00  6.11    -0.344 N 
ATOM     32  H   VAL B   7      10.786  88.017  67.118  1.00  0.23     0.163 HD
ATOM     33  O   TRP B   6       9.578  90.289  68.874  1.00  0.00    -0.271 OA
BRANCH  31  34
ATOM     34  CA  VAL B   7      10.168  87.586  69.094  1.00  5.65     0.189 C 
BRANCH  34  35
ATOM     35  CB  VAL B   7       9.443  88.372  70.204  1.00  1.15     0.010 C 
ATOM     36  CG1 VAL B   7       8.017  87.868  70.371  1.00  4.96     0.012 C 
ATOM     37  CG2 VAL B   7      10.206  88.275  71.517  1.00  9.83     0.012 C 
ENDBRANCH  34  35
BRANCH  34  38
ATOM     38  C   VAL B   7       9.348  86.348  68.742  1.00  4.44     0.197 C 
ATOM     39  OXT VAL B   7       9.402  85.365  69.509  1.00  0.00    -0.646 OA
ATOM     40  O   VAL B   7       8.657  86.375  67.702  1.00  0.00    -0.646 OA
ENDBRANCH  34  38
ENDBRANCH  31  34
ENDBRANCH  18  30
ENDBRANCH  15  18
ENDBRANCH   9  14
ENDBRANCH   7   9
ENDBRANCH   1   5
BRANCH   1  41
ATOM     41  N   CYS B   4       4.237  90.789  62.190  1.00  0.00    -0.345 N 
ATOM     42  C   PHE B   3       4.377  89.478  62.461  1.00  0.00     0.241 C 
ATOM     43  O   PHE B   3       5.481  88.913  62.384  1.00  0.00    -0.271 OA
ATOM     44  H   CYS B   4       3.351  91.197  62.254  1.00  0.00     0.163 HD
BRANCH  42  45
ATOM     45  CA  PHE B   3       3.154  88.706  62.895  1.00  0.00     0.180 C 
BRANCH  45  46
ATOM     46  N   PHE B   3       2.539  89.317  64.069  1.00  0.00    -0.346 N 
ATOM     47  H   PHE B   3       2.829  90.207  64.352  1.00  0.00     0.163 HD
ATOM     48  C   CYS B   2       1.583  88.684  64.773  1.00  0.00     0.241 C 
ATOM     49  O   CYS B   2       1.171  87.568  64.468  1.00  0.00    -0.271 OA
BRANCH  48  50
ATOM     50  CA  CYS B   2       1.068  89.415  65.992  1.00  0.00     0.185 C 
BRANCH  50  51
ATOM     51  CB  CYS B   2       0.554  90.828  65.657  1.00  0.00     0.105 C 
BRANCH  51  52
ATOM     52  SG  CYS B   2       0.940  91.983  66.993  1.00  0.00    -0.180 SA
ATOM     53  HG  CYS B   2       0.827  93.099  66.276  1.00  0.00     0.101 HD
ENDBRANCH  51  52
ENDBRANCH  50  51
BRANCH  50  54
ATOM     54  N   CYS B   2       2.107  89.528  67.011  1.00  0.00    -0.345 N 
ATOM     55  H   CYS B   2       2.617  90.366  67.086  1.00  0.00     0.163 HD
ATOM     56  C   LYS B   1       2.383  88.520  67.844  1.00  0.00     0.254 C 
ATOM     57  O   LYS B   1       1.741  87.464  67.831  1.00  0.00    -0.271 OA
BRANCH  56  58
ATOM     58  CA  LYS B   1       3.494  88.761  68.839  1.00  0.00     0.350 C 
BRANCH  58  59
ATOM     59  N   LYS B   1       4.800  88.514  68.235  1.00  0.00     0.312 N 
ATOM     60  H   LYS B   1       5.082  87.498  68.396  1.00  0.00     0.359 HD
ENDBRANCH  58  59
BRANCH  58  61
ATOM     61  CB  LYS B   1       3.443  90.213  69.387  1.00  0.00     0.048 C 
BRANCH  61  62
ATOM     62  CG  LYS B   1       2.626  90.349  70.696  1.00  0.00     0.004 C 
BRANCH  62  63
ATOM     63  CD  LYS B   1       1.111  90.466  70.501  1.00  0.00     0.027 C 
BRANCH  63  64
ATOM     64  CE  LYS B   1       0.569  91.579  71.408  1.00  0.00     0.229 C 
BRANCH  64  65
ATOM     65  NZ  LYS B   1       0.838  92.889  70.790  1.00  0.00    -0.079 N 
ATOM     66  HZ3 LYS B   1      -0.037  93.393  70.799  1.00  0.00     0.274 HD
ATOM     67  HZ2 LYS B   1       1.190  92.785  69.833  1.00  0.00     0.274 HD
ATOM     68  HZ1 LYS B   1       1.568  93.391  71.309  1.00  0.00     0.274 HD
ENDBRANCH  64  65
ENDBRANCH  63  64
ENDBRANCH  62  63
ENDBRANCH  61  62
ENDBRANCH  58  61
ENDBRANCH  56  58
ENDBRANCH  50  54
ENDBRANCH  48  50
ENDBRANCH  45  46
BRANCH  45  69
ATOM     69  CB  PHE B   3       2.137  88.672  61.715  1.00  0.00     0.073 C 
BRANCH  69  70
ATOM     70  CG  PHE B   3       2.278  87.507  60.722  1.00  0.00    -0.056 A 
ATOM     71  CD2 PHE B   3       2.986  87.667  59.529  1.00  0.00     0.007 A 
ATOM     72  CE2 PHE B   3       3.166  86.584  58.672  1.00  0.00     0.001 A 
ATOM     73  CZ  PHE B   3       2.643  85.336  59.007  1.00  0.00     0.000 A 
ATOM     74  CE1 PHE B   3       1.935  85.171  60.196  1.00  0.00     0.001 A 
ATOM     75  CD1 PHE B   3       1.746  86.254  61.046  1.00  0.00     0.007 A 
ENDBRANCH  69  70
ENDBRANCH  45  69
ENDBRANCH  42  45
ENDBRANCH   1  41
TORSDOF 30
ENDMDL
