MODEL 1
REMARK VINA RESULT:      -7.6      0.000      0.000
REMARK  30 active torsions:
REMARK  status: ('A' for Active; 'I' for Inactive)
REMARK    1  A    between atoms: N_1  and  CA_2 
REMARK    2  A    between atoms: CA_2  and  CB_5 
REMARK    3  A    between atoms: CA_2  and  C_3 
REMARK       I    between atoms: C_3  and  N_14 
REMARK    4  A    between atoms: CB_5  and  CG_6 
REMARK    5  A    between atoms: CG_6  and  CD_7 
REMARK    6  A    between atoms: CD_7  and  CE_8 
REMARK    7  A    between atoms: CE_8  and  NZ_9 
REMARK    8  A    between atoms: N_14  and  CA_15 
REMARK    9  A    between atoms: CA_15  and  CB_18 
REMARK   10  A    between atoms: CA_15  and  C_16 
REMARK       I    between atoms: C_16  and  N_22 
REMARK   11  A    between atoms: CB_18  and  SG_19 
REMARK   12  A    between atoms: N_22  and  CA_23 
REMARK   13  A    between atoms: CA_23  and  CB_26 
REMARK   14  A    between atoms: CA_23  and  C_24 
REMARK       I    between atoms: C_24  and  N_34 
REMARK   15  A    between atoms: CB_26  and  CG_27 
REMARK   16  A    between atoms: N_34  and  CA_35 
REMARK   17  A    between atoms: CA_35  and  CB_38 
REMARK   18  A    between atoms: CA_35  and  C_36 
REMARK       I    between atoms: C_36  and  N_48 
REMARK   19  A    between atoms: CB_38  and  OG_39 
REMARK   20  A    between atoms: CA_42  and  N_48 
REMARK   21  A    between atoms: CA_42  and  CB_44 
REMARK   22  A    between atoms: CA_42  and  C_43 
REMARK       I    between atoms: C_43  and  N_64 
REMARK   23  A    between atoms: CB_44  and  OG1_50 
REMARK   24  A    between atoms: CA_51  and  CB_53 
REMARK   25  A    between atoms: CA_51  and  N_64 
REMARK   26  A    between atoms: CA_51  and  C_52 
REMARK       I    between atoms: C_52  and  N_73 
REMARK   27  A    between atoms: CB_53  and  CG_54 
REMARK   28  A    between atoms: CA_67  and  N_73 
REMARK   29  A    between atoms: CA_67  and  CB_69 
REMARK   30  A    between atoms: CA_67  and  C_68 
ROOT
ATOM      1  CA  SER B   4       4.477  89.645  66.353  1.00  0.00     0.200 C 
ENDROOT
BRANCH   1   2
ATOM      2  CB  SER B   4       3.410  89.459  67.461  1.00  0.00     0.199 C 
BRANCH   2   3
ATOM      3  OG  SER B   4       3.642  90.289  68.603  1.00  0.00    -0.398 OA
ATOM      4  HG  SER B   4       3.662  91.199  68.298  1.00  0.00     0.209 HD
ENDBRANCH   2   3
ENDBRANCH   1   2
BRANCH   1   5
ATOM      5  C   SER B   4       4.260  90.927  65.582  1.00  0.00     0.243 C 
ATOM      6  O   SER B   4       3.450  91.766  65.989  1.00  0.00    -0.271 OA
ATOM      7  N   THR B   5       4.933  91.063  64.447  1.00  7.70    -0.344 N 
ATOM      8  H   THR B   5       5.549  90.352  64.174  1.00  0.23     0.163 HD
BRANCH   7   9
ATOM      9  CA  THR B   5       4.795  92.246  63.602  1.00  7.88     0.205 C 
BRANCH   9  10
ATOM     10  CB  THR B   5       5.857  93.285  63.966  1.00  4.05     0.146 C 
ATOM     11  CG2 THR B   5       6.516  93.022  65.302  1.00  3.72     0.042 C 
BRANCH  10  12
ATOM     12  OG1 THR B   5       6.877  93.323  62.984  1.00  7.31    -0.393 OA
ATOM     13  HG1 THR B   5       6.741  94.079  62.410  1.00  0.23     0.210 HD
ENDBRANCH  10  12
ENDBRANCH   9  10
BRANCH   9  14
ATOM     14  C   THR B   5       4.918  91.870  62.129  1.00  7.05     0.243 C 
ATOM     15  N   TRP B   6       5.449  90.681  61.867  1.00  0.00    -0.346 N 
ATOM     16  H   TRP B   6       5.731  90.109  62.610  1.00  0.23     0.163 HD
ATOM     17  O   THR B   5       4.542  92.644  61.248  1.00  6.06    -0.271 OA
BRANCH  15  18
ATOM     18  CA  TRP B   6       5.624  90.208  60.500  1.00  0.00     0.181 C 
BRANCH  18  19
ATOM     19  CB  TRP B   6       6.815  89.252  60.421  1.00  0.00     0.075 C 
BRANCH  19  20
ATOM     20  CG  TRP B   6       6.876  88.501  59.126  1.00  0.00    -0.028 A 
ATOM     21  CD2 TRP B   6       6.975  87.080  58.963  1.00  0.00    -0.002 A 
ATOM     22  CE2 TRP B   6       6.996  86.820  57.580  1.00  0.00     0.042 A 
ATOM     23  CE3 TRP B   6       7.049  86.006  59.853  1.00  0.00     0.014 A 
ATOM     24  CZ2 TRP B   6       7.086  85.529  57.068  1.00  0.00     0.030 A 
ATOM     25  NE1 TRP B   6       6.914  88.026  56.932  1.00  0.00    -0.365 N 
ATOM     26  CH2 TRP B   6       7.157  84.494  57.961  1.00  0.00     0.002 A 
ATOM     27  CZ3 TRP B   6       7.138  84.723  59.342  1.00  0.00     0.001 A 
ATOM     28  HE1 TRP B   6       6.907  88.151  55.960  1.00  0.23     0.165 HD
ATOM     29  CD1 TRP B   6       6.842  89.029  57.868  1.00  0.00     0.096 A 
ENDBRANCH  19  20
ENDBRANCH  18  19
BRANCH  18  30
ATOM     30  C   TRP B   6       4.361  89.517  59.996  1.00  0.00     0.241 C 
ATOM     31  N   VAL B   7       3.919  88.500  60.730  1.00  6.11    -0.344 N 
ATOM     32  H   VAL B   7       4.409  88.247  61.539  1.00  0.23     0.163 HD
ATOM     33  O   TRP B   6       3.803  89.895  58.965  1.00  0.00    -0.271 OA
BRANCH  31  34
ATOM     34  CA  VAL B   7       2.725  87.751  60.359  1.00  5.65     0.189 C 
BRANCH  34  35
ATOM     35  CB  VAL B   7       3.020  86.241  60.269  1.00  1.15     0.010 C 
ATOM     36  CG1 VAL B   7       3.464  85.867  58.862  1.00  4.96     0.012 C 
ATOM     37  CG2 VAL B   7       4.070  85.836  61.292  1.00  9.83     0.012 C 
ENDBRANCH  34  35
BRANCH  34  38
ATOM     38  C   VAL B   7       1.598  87.980  61.362  1.00  4.44     0.197 C 
ATOM     39  OXT VAL B   7       0.852  87.020  61.644  1.00  0.00    -0.646 OA
ATOM     40  O   VAL B   7       1.473  89.119  61.858  1.00  0.00    -0.646 OA
ENDBRANCH  34  38
ENDBRANCH  31  34
ENDBRANCH  18  30
ENDBRANCH  15  18
ENDBRANCH   9  14
ENDBRANCH   7   9
ENDBRANCH   1   5
BRANCH   1  41
ATOM     41  N   SER B   4       5.824  89.595  66.914  1.00  0.00    -0.344 N 
ATOM     42  C   PHE B   3       6.874  89.184  66.220  1.00  0.00     0.241 C 
ATOM     43  O   PHE B   3       6.768  88.815  65.039  1.00  0.00    -0.271 OA
ATOM     44  H   SER B   4       5.957  89.877  67.852  1.00  0.00     0.163 HD
BRANCH  42  45
ATOM     45  CA  PHE B   3       8.226  89.206  66.893  1.00  0.00     0.180 C 
BRANCH  45  46
ATOM     46  N   PHE B   3       8.975  90.402  66.522  1.00  0.00    -0.346 N 
ATOM     47  H   PHE B   3       8.745  91.258  66.934  1.00  0.00     0.163 HD
ATOM     48  C   CYS B   2       9.977  90.355  65.625  1.00  0.00     0.241 C 
ATOM     49  O   CYS B   2      10.320  89.312  65.075  1.00  0.00    -0.271 OA
BRANCH  48  50
ATOM     50  CA  CYS B   2      10.636  91.677  65.302  1.00  0.00     0.185 C 
BRANCH  50  51
ATOM     51  CB  CYS B   2       9.694  92.635  64.548  1.00  0.00     0.105 C 
BRANCH  51  52
ATOM     52  SG  CYS B   2      10.217  94.351  64.769  1.00  0.00    -0.180 SA
ATOM     53  HG  CYS B   2       9.000  94.890  64.760  1.00  0.00     0.101 HD
ENDBRANCH  51  52
ENDBRANCH  50  51
BRANCH  50  54
ATOM     54  N   CYS B   2      11.838  91.478  64.496  1.00  0.00    -0.345 N 
ATOM     55  H   CYS B   2      11.747  91.181  63.563  1.00  0.00     0.163 HD
ATOM     56  C   LYS B   1      13.058  91.691  64.996  1.00  0.00     0.254 C 
ATOM     57  O   LYS B   1      13.232  92.114  66.144  1.00  0.00    -0.271 OA
BRANCH  56  58
ATOM     58  CA  LYS B   1      14.218  91.431  64.063  1.00  0.00     0.350 C 
BRANCH  58  59
ATOM     59  N   LYS B   1      13.758  91.289  62.685  1.00  0.00     0.312 N 
ATOM     60  H   LYS B   1      14.573  90.986  62.066  1.00  0.00     0.359 HD
ENDBRANCH  58  59
BRANCH  58  61
ATOM     61  CB  LYS B   1      15.263  92.576  64.145  1.00  0.00     0.048 C 
BRANCH  61  62
ATOM     62  CG  LYS B   1      15.388  93.390  62.833  1.00  0.00     0.004 C 
BRANCH  62  63
ATOM     63  CD  LYS B   1      14.979  94.862  62.947  1.00  0.00     0.027 C 
BRANCH  63  64
ATOM     64  CE  LYS B   1      13.467  94.987  62.711  1.00  0.00     0.229 C 
BRANCH  64  65
ATOM     65  NZ  LYS B   1      13.223  95.439  61.331  1.00  0.00    -0.079 N 
ATOM     66  HZ3 LYS B   1      13.366  94.634  60.738  1.00  0.00     0.274 HD
ATOM     67  HZ2 LYS B   1      13.856  96.202  61.070  1.00  0.00     0.274 HD
ATOM     68  HZ1 LYS B   1      12.271  95.814  61.236  1.00  0.00     0.274 HD
ENDBRANCH  64  65
ENDBRANCH  63  64
ENDBRANCH  62  63
ENDBRANCH  61  62
ENDBRANCH  58  61
ENDBRANCH  56  58
ENDBRANCH  50  54
ENDBRANCH  48  50
ENDBRANCH  45  46
BRANCH  45  69
ATOM     69  CB  PHE B   3       8.019  89.163  68.437  1.00  0.00     0.073 C 
BRANCH  69  70
ATOM     70  CG  PHE B   3       8.889  88.164  69.217  1.00  0.00    -0.056 A 
ATOM     71  CD2 PHE B   3       9.650  88.581  70.312  1.00  0.00     0.007 A 
ATOM     72  CE2 PHE B   3      10.378  87.653  71.052  1.00  0.00     0.001 A 
ATOM     73  CZ  PHE B   3      10.344  86.304  70.703  1.00  0.00     0.000 A 
ATOM     74  CE1 PHE B   3       9.588  85.881  69.612  1.00  0.00     0.001 A 
ATOM     75  CD1 PHE B   3       8.870  86.809  68.867  1.00  0.00     0.007 A 
ENDBRANCH  69  70
ENDBRANCH  45  69
ENDBRANCH  42  45
ENDBRANCH   1  41
TORSDOF 30
ENDMDL
MODEL 2
REMARK VINA RESULT:      -7.4      1.879      2.723
REMARK  30 active torsions:
REMARK  status: ('A' for Active; 'I' for Inactive)
REMARK    1  A    between atoms: N_1  and  CA_2 
REMARK    2  A    between atoms: CA_2  and  CB_5 
REMARK    3  A    between atoms: CA_2  and  C_3 
REMARK       I    between atoms: C_3  and  N_14 
REMARK    4  A    between atoms: CB_5  and  CG_6 
REMARK    5  A    between atoms: CG_6  and  CD_7 
REMARK    6  A    between atoms: CD_7  and  CE_8 
REMARK    7  A    between atoms: CE_8  and  NZ_9 
REMARK    8  A    between atoms: N_14  and  CA_15 
REMARK    9  A    between atoms: CA_15  and  CB_18 
REMARK   10  A    between atoms: CA_15  and  C_16 
REMARK       I    between atoms: C_16  and  N_22 
REMARK   11  A    between atoms: CB_18  and  SG_19 
REMARK   12  A    between atoms: N_22  and  CA_23 
REMARK   13  A    between atoms: CA_23  and  CB_26 
REMARK   14  A    between atoms: CA_23  and  C_24 
REMARK       I    between atoms: C_24  and  N_34 
REMARK   15  A    between atoms: CB_26  and  CG_27 
REMARK   16  A    between atoms: N_34  and  CA_35 
REMARK   17  A    between atoms: CA_35  and  CB_38 
REMARK   18  A    between atoms: CA_35  and  C_36 
REMARK       I    between atoms: C_36  and  N_48 
REMARK   19  A    between atoms: CB_38  and  OG_39 
REMARK   20  A    between atoms: CA_42  and  N_48 
REMARK   21  A    between atoms: CA_42  and  CB_44 
REMARK   22  A    between atoms: CA_42  and  C_43 
REMARK       I    between atoms: C_43  and  N_64 
REMARK   23  A    between atoms: CB_44  and  OG1_50 
REMARK   24  A    between atoms: CA_51  and  CB_53 
REMARK   25  A    between atoms: CA_51  and  N_64 
REMARK   26  A    between atoms: CA_51  and  C_52 
REMARK       I    between atoms: C_52  and  N_73 
REMARK   27  A    between atoms: CB_53  and  CG_54 
REMARK   28  A    between atoms: CA_67  and  N_73 
REMARK   29  A    between atoms: CA_67  and  CB_69 
REMARK   30  A    between atoms: CA_67  and  C_68 
ROOT
ATOM      1  CA  SER B   4       5.622  90.696  64.575  1.00  0.00     0.200 C 
ENDROOT
BRANCH   1   2
ATOM      2  CB  SER B   4       4.481  90.218  65.509  1.00  0.00     0.199 C 
BRANCH   2   3
ATOM      3  OG  SER B   4       3.192  90.286  64.892  1.00  0.00    -0.398 OA
ATOM      4  HG  SER B   4       3.328  90.461  63.958  1.00  0.00     0.209 HD
ENDBRANCH   2   3
ENDBRANCH   1   2
BRANCH   1   5
ATOM      5  C   SER B   4       5.197  91.884  63.743  1.00  0.00     0.243 C 
ATOM      6  O   SER B   4       4.539  92.797  64.253  1.00  0.00    -0.271 OA
ATOM      7  N   THR B   5       5.516  91.856  62.455  1.00  7.70    -0.344 N 
ATOM      8  H   THR B   5       6.027  91.094  62.110  1.00  0.23     0.163 HD
BRANCH   7   9
ATOM      9  CA  THR B   5       5.145  92.933  61.542  1.00  7.88     0.205 C 
BRANCH   9  10
ATOM     10  CB  THR B   5       6.393  93.675  61.061  1.00  4.05     0.146 C 
ATOM     11  CG2 THR B   5       7.651  93.270  61.799  1.00  3.72     0.042 C 
BRANCH  10  12
ATOM     12  OG1 THR B   5       6.613  93.442  59.681  1.00  7.31    -0.393 OA
ATOM     13  HG1 THR B   5       6.611  94.279  59.211  1.00  0.23     0.210 HD
ENDBRANCH  10  12
ENDBRANCH   9  10
BRANCH   9  14
ATOM     14  C   THR B   5       4.375  92.382  60.346  1.00  7.05     0.243 C 
ATOM     15  N   TRP B   6       4.217  91.063  60.305  1.00  0.00    -0.346 N 
ATOM     16  H   TRP B   6       4.592  90.514  61.025  1.00  0.23     0.163 HD
ATOM     17  O   THR B   5       3.935  93.136  59.479  1.00  6.06    -0.271 OA
BRANCH  15  18
ATOM     18  CA  TRP B   6       3.503  90.413  59.213  1.00  0.00     0.181 C 
BRANCH  18  19
ATOM     19  CB  TRP B   6       4.493  89.911  58.161  1.00  0.00     0.075 C 
BRANCH  19  20
ATOM     20  CG  TRP B   6       5.717  89.290  58.759  1.00  0.00    -0.028 A 
ATOM     21  CD2 TRP B   6       5.944  87.894  58.992  1.00  0.00    -0.002 A 
ATOM     22  CE2 TRP B   6       7.226  87.769  59.560  1.00  0.00     0.042 A 
ATOM     23  CE3 TRP B   6       5.186  86.740  58.775  1.00  0.00     0.014 A 
ATOM     24  CZ2 TRP B   6       7.765  86.535  59.913  1.00  0.00     0.030 A 
ATOM     25  NE1 TRP B   6       7.754  89.030  59.668  1.00  0.00    -0.365 N 
ATOM     26  CH2 TRP B   6       7.003  85.421  59.691  1.00  0.00     0.002 A 
ATOM     27  CZ3 TRP B   6       5.725  85.515  59.127  1.00  0.00     0.001 A 
ATOM     28  HE1 TRP B   6       8.638  89.249  60.030  1.00  0.23     0.165 HD
ATOM     29  CD1 TRP B   6       6.841  89.937  59.185  1.00  0.00     0.096 A 
ENDBRANCH  19  20
ENDBRANCH  18  19
BRANCH  18  30
ATOM     30  C   TRP B   6       2.653  89.257  59.730  1.00  0.00     0.241 C 
ATOM     31  N   VAL B   7       2.924  88.837  60.962  1.00  6.11    -0.344 N 
ATOM     32  H   VAL B   7       3.637  89.277  61.470  1.00  0.23     0.163 HD
ATOM     33  O   TRP B   6       1.776  88.756  59.026  1.00  0.00    -0.271 OA
BRANCH  31  34
ATOM     34  CA  VAL B   7       2.189  87.738  61.576  1.00  5.65     0.189 C 
BRANCH  34  35
ATOM     35  CB  VAL B   7       3.141  86.774  62.310  1.00  1.15     0.010 C 
ATOM     36  CG1 VAL B   7       3.103  85.394  61.667  1.00  4.96     0.012 C 
ATOM     37  CG2 VAL B   7       4.559  87.324  62.325  1.00  9.83     0.012 C 
ENDBRANCH  34  35
BRANCH  34  38
ATOM     38  C   VAL B   7       1.145  88.256  62.561  1.00  4.44     0.197 C 
ATOM     39  OXT VAL B   7       0.144  87.547  62.788  1.00  0.00    -0.646 OA
ATOM     40  O   VAL B   7       1.341  89.367  63.096  1.00  0.00    -0.646 OA
ENDBRANCH  34  38
ENDBRANCH  31  34
ENDBRANCH  18  30
ENDBRANCH  15  18
ENDBRANCH   9  14
ENDBRANCH   7   9
ENDBRANCH   1   5
BRANCH   1  41
ATOM     41  N   SER B   4       6.827  91.000  65.340  1.00  0.00    -0.344 N 
ATOM     42  C   PHE B   3       8.046  90.876  64.837  1.00  0.00     0.241 C 
ATOM     43  O   PHE B   3       8.230  90.489  63.671  1.00  0.00    -0.271 OA
ATOM     44  H   SER B   4       6.731  91.310  66.274  1.00  0.00     0.163 HD
BRANCH  42  45
ATOM     45  CA  PHE B   3       9.219  91.252  65.710  1.00  0.00     0.180 C 
BRANCH  45  46
ATOM     46  N   PHE B   3       9.843  92.487  65.246  1.00  0.00    -0.346 N 
ATOM     47  H   PHE B   3       9.520  93.343  65.589  1.00  0.00     0.163 HD
ATOM     48  C   CYS B   2      10.852  92.475  64.355  1.00  0.00     0.241 C 
ATOM     49  O   CYS B   2      11.307  91.434  63.891  1.00  0.00    -0.271 OA
BRANCH  48  50
ATOM     50  CA  CYS B   2      11.371  93.829  63.929  1.00  0.00     0.185 C 
BRANCH  50  51
ATOM     51  CB  CYS B   2      10.386  94.574  63.008  1.00  0.00     0.105 C 
BRANCH  51  52
ATOM     52  SG  CYS B   2      11.270  95.695  61.899  1.00  0.00    -0.180 SA
ATOM     53  HG  CYS B   2      12.064  94.780  61.348  1.00  0.00     0.101 HD
ENDBRANCH  51  52
ENDBRANCH  50  51
BRANCH  50  54
ATOM     54  N   CYS B   2      12.650  93.703  63.236  1.00  0.00    -0.345 N 
ATOM     55  H   CYS B   2      12.755  93.017  62.540  1.00  0.00     0.163 HD
ATOM     56  C   LYS B   1      13.683  94.500  63.525  1.00  0.00     0.254 C 
ATOM     57  O   LYS B   1      13.596  95.415  64.352  1.00  0.00    -0.271 OA
BRANCH  56  58
ATOM     58  CA  LYS B   1      14.955  94.253  62.748  1.00  0.00     0.350 C 
BRANCH  58  59
ATOM     59  N   LYS B   1      16.091  94.918  63.380  1.00  0.00     0.312 N 
ATOM     60  H   LYS B   1      15.741  95.569  64.151  1.00  0.00     0.359 HD
ENDBRANCH  58  59
BRANCH  58  61
ATOM     61  CB  LYS B   1      15.246  92.732  62.629  1.00  0.00     0.048 C 
BRANCH  61  62
ATOM     62  CG  LYS B   1      15.563  92.058  63.987  1.00  0.00     0.004 C 
BRANCH  62  63
ATOM     63  CD  LYS B   1      14.573  90.971  64.413  1.00  0.00     0.027 C 
BRANCH  63  64
ATOM     64  CE  LYS B   1      13.980  91.334  65.782  1.00  0.00     0.229 C 
BRANCH  64  65
ATOM     65  NZ  LYS B   1      13.065  90.266  66.218  1.00  0.00    -0.079 N 
ATOM     66  HZ3 LYS B   1      13.356  89.427  65.736  1.00  0.00     0.274 HD
ATOM     67  HZ2 LYS B   1      12.090  90.495  65.997  1.00  0.00     0.274 HD
ATOM     68  HZ1 LYS B   1      13.105  90.148  67.238  1.00  0.00     0.274 HD
ENDBRANCH  64  65
ENDBRANCH  63  64
ENDBRANCH  62  63
ENDBRANCH  61  62
ENDBRANCH  58  61
ENDBRANCH  56  58
ENDBRANCH  50  54
ENDBRANCH  48  50
ENDBRANCH  45  46
BRANCH  45  69
ATOM     69  CB  PHE B   3       8.720  91.423  67.176  1.00  0.00     0.073 C 
BRANCH  69  70
ATOM     70  CG  PHE B   3       9.163  90.347  68.181  1.00  0.00    -0.056 A 
ATOM     71  CD2 PHE B   3       8.901  90.491  69.545  1.00  0.00     0.007 A 
ATOM     72  CE2 PHE B   3       9.246  89.476  70.434  1.00  0.00     0.001 A 
ATOM     73  CZ  PHE B   3       9.849  88.311  69.962  1.00  0.00     0.000 A 
ATOM     74  CE1 PHE B   3      10.114  88.162  68.602  1.00  0.00     0.001 A 
ATOM     75  CD1 PHE B   3       9.780  89.180  67.716  1.00  0.00     0.007 A 
ENDBRANCH  69  70
ENDBRANCH  45  69
ENDBRANCH  42  45
ENDBRANCH   1  41
TORSDOF 30
ENDMDL
MODEL 3
REMARK VINA RESULT:      -7.1      2.630      5.719
REMARK  30 active torsions:
REMARK  status: ('A' for Active; 'I' for Inactive)
REMARK    1  A    between atoms: N_1  and  CA_2 
REMARK    2  A    between atoms: CA_2  and  CB_5 
REMARK    3  A    between atoms: CA_2  and  C_3 
REMARK       I    between atoms: C_3  and  N_14 
REMARK    4  A    between atoms: CB_5  and  CG_6 
REMARK    5  A    between atoms: CG_6  and  CD_7 
REMARK    6  A    between atoms: CD_7  and  CE_8 
REMARK    7  A    between atoms: CE_8  and  NZ_9 
REMARK    8  A    between atoms: N_14  and  CA_15 
REMARK    9  A    between atoms: CA_15  and  CB_18 
REMARK   10  A    between atoms: CA_15  and  C_16 
REMARK       I    between atoms: C_16  and  N_22 
REMARK   11  A    between atoms: CB_18  and  SG_19 
REMARK   12  A    between atoms: N_22  and  CA_23 
REMARK   13  A    between atoms: CA_23  and  CB_26 
REMARK   14  A    between atoms: CA_23  and  C_24 
REMARK       I    between atoms: C_24  and  N_34 
REMARK   15  A    between atoms: CB_26  and  CG_27 
REMARK   16  A    between atoms: N_34  and  CA_35 
REMARK   17  A    between atoms: CA_35  and  CB_38 
REMARK   18  A    between atoms: CA_35  and  C_36 
REMARK       I    between atoms: C_36  and  N_48 
REMARK   19  A    between atoms: CB_38  and  OG_39 
REMARK   20  A    between atoms: CA_42  and  N_48 
REMARK   21  A    between atoms: CA_42  and  CB_44 
REMARK   22  A    between atoms: CA_42  and  C_43 
REMARK       I    between atoms: C_43  and  N_64 
REMARK   23  A    between atoms: CB_44  and  OG1_50 
REMARK   24  A    between atoms: CA_51  and  CB_53 
REMARK   25  A    between atoms: CA_51  and  N_64 
REMARK   26  A    between atoms: CA_51  and  C_52 
REMARK       I    between atoms: C_52  and  N_73 
REMARK   27  A    between atoms: CB_53  and  CG_54 
REMARK   28  A    between atoms: CA_67  and  N_73 
REMARK   29  A    between atoms: CA_67  and  CB_69 
REMARK   30  A    between atoms: CA_67  and  C_68 
ROOT
ATOM      1  CA  SER B   4       2.261  89.388  64.185  1.00  0.00     0.200 C 
ENDROOT
BRANCH   1   2
ATOM      2  CB  SER B   4       1.365  90.144  65.198  1.00  0.00     0.199 C 
BRANCH   2   3
ATOM      3  OG  SER B   4      -0.004  90.212  64.786  1.00  0.00    -0.398 OA
ATOM      4  HG  SER B   4      -0.546  90.045  65.561  1.00  0.00     0.209 HD
ENDBRANCH   2   3
ENDBRANCH   1   2
BRANCH   1   5
ATOM      5  C   SER B   4       1.499  89.023  62.933  1.00  0.00     0.243 C 
ATOM      6  O   SER B   4       0.431  88.407  63.013  1.00  0.00    -0.271 OA
ATOM      7  N   THR B   5       2.061  89.346  61.775  1.00  7.70    -0.344 N 
ATOM      8  H   THR B   5       2.919  89.822  61.781  1.00  0.23     0.163 HD
BRANCH   7   9
ATOM      9  CA  THR B   5       1.435  89.030  60.495  1.00  7.88     0.205 C 
BRANCH   9  10
ATOM     10  CB  THR B   5       2.073  89.853  59.374  1.00  4.05     0.146 C 
ATOM     11  CG2 THR B   5       3.461  89.379  59.001  1.00  3.72     0.042 C 
BRANCH  10  12
ATOM     12  OG1 THR B   5       1.276  89.809  58.204  1.00  7.31    -0.393 OA
ATOM     13  HG1 THR B   5       1.091  90.703  57.909  1.00  0.23     0.210 HD
ENDBRANCH  10  12
ENDBRANCH   9  10
BRANCH   9  14
ATOM     14  C   THR B   5       1.564  87.542  60.186  1.00  7.05     0.243 C 
ATOM     15  N   TRP B   6       2.337  86.837  61.005  1.00  0.00    -0.346 N 
ATOM     16  H   TRP B   6       2.779  87.288  61.753  1.00  0.23     0.163 HD
ATOM     17  O   THR B   5       0.978  87.045  59.225  1.00  6.06    -0.271 OA
BRANCH  15  18
ATOM     18  CA  TRP B   6       2.545  85.407  60.815  1.00  0.00     0.181 C 
BRANCH  18  19
ATOM     19  CB  TRP B   6       4.029  85.067  60.950  1.00  0.00     0.075 C 
BRANCH  19  20
ATOM     20  CG  TRP B   6       4.896  85.852  60.014  1.00  0.00    -0.028 A 
ATOM     21  CD2 TRP B   6       5.956  86.747  60.374  1.00  0.00    -0.002 A 
ATOM     22  CE2 TRP B   6       6.497  87.254  59.178  1.00  0.00     0.042 A 
ATOM     23  CE3 TRP B   6       6.497  87.168  61.591  1.00  0.00     0.014 A 
ATOM     24  CZ2 TRP B   6       7.554  88.160  59.166  1.00  0.00     0.030 A 
ATOM     25  NE1 TRP B   6       5.800  86.693  58.139  1.00  0.00    -0.365 N 
ATOM     26  CH2 TRP B   6       8.065  88.556  60.371  1.00  0.00     0.002 A 
ATOM     27  CZ3 TRP B   6       7.547  88.069  61.577  1.00  0.00     0.001 A 
ATOM     28  HE1 TRP B   6       5.960  86.864  57.187  1.00  0.23     0.165 HD
ATOM     29  CD1 TRP B   6       4.840  85.853  58.650  1.00  0.00     0.096 A 
ENDBRANCH  19  20
ENDBRANCH  18  19
BRANCH  18  30
ATOM     30  C   TRP B   6       1.727  84.599  61.818  1.00  0.00     0.241 C 
ATOM     31  N   VAL B   7       2.357  84.241  62.932  1.00  6.11    -0.344 N 
ATOM     32  H   VAL B   7       3.291  84.505  63.058  1.00  0.23     0.163 HD
ATOM     33  O   TRP B   6       0.554  84.305  61.584  1.00  0.00    -0.271 OA
BRANCH  31  34
ATOM     34  CA  VAL B   7       1.693  83.465  63.971  1.00  5.65     0.189 C 
BRANCH  34  35
ATOM     35  CB  VAL B   7       2.252  82.030  64.038  1.00  1.15     0.010 C 
ATOM     36  CG1 VAL B   7       1.488  81.115  63.091  1.00  4.96     0.012 C 
ATOM     37  CG2 VAL B   7       3.739  82.016  63.718  1.00  9.83     0.012 C 
ENDBRANCH  34  35
BRANCH  34  38
ATOM     38  C   VAL B   7       1.850  84.125  65.338  1.00  4.44     0.197 C 
ATOM     39  OXT VAL B   7       2.034  85.358  65.382  1.00  0.00    -0.646 OA
ATOM     40  O   VAL B   7       1.787  83.400  66.353  1.00  0.00    -0.646 OA
ENDBRANCH  34  38
ENDBRANCH  31  34
ENDBRANCH  18  30
ENDBRANCH  15  18
ENDBRANCH   9  14
ENDBRANCH   7   9
ENDBRANCH   1   5
BRANCH   1  41
ATOM     41  N   SER B   4       3.454  90.166  63.863  1.00  0.00    -0.344 N 
ATOM     42  C   PHE B   3       4.622  89.966  64.454  1.00  0.00     0.241 C 
ATOM     43  O   PHE B   3       4.767  89.093  65.326  1.00  0.00    -0.271 OA
ATOM     44  H   SER B   4       3.386  90.874  63.176  1.00  0.00     0.163 HD
BRANCH  42  45
ATOM     45  CA  PHE B   3       5.796  90.809  64.016  1.00  0.00     0.180 C 
BRANCH  45  46
ATOM     46  N   PHE B   3       7.053  90.244  64.495  1.00  0.00    -0.346 N 
ATOM     47  H   PHE B   3       7.170  89.274  64.500  1.00  0.00     0.163 HD
ATOM     48  C   CYS B   2       8.057  91.028  64.931  1.00  0.00     0.241 C 
ATOM     49  O   CYS B   2       7.976  92.253  64.944  1.00  0.00    -0.271 OA
BRANCH  48  50
ATOM     50  CA  CYS B   2       9.283  90.307  65.440  1.00  0.00     0.185 C 
BRANCH  50  51
ATOM     51  CB  CYS B   2       8.989  89.458  66.692  1.00  0.00     0.105 C 
BRANCH  51  52
ATOM     52  SG  CYS B   2       9.154  90.450  68.193  1.00  0.00    -0.180 SA
ATOM     53  HG  CYS B   2       8.154  91.291  67.938  1.00  0.00     0.101 HD
ENDBRANCH  51  52
ENDBRANCH  50  51
BRANCH  50  54
ATOM     54  N   CYS B   2      10.349  91.252  65.762  1.00  0.00    -0.345 N 
ATOM     55  H   CYS B   2      10.250  91.841  66.543  1.00  0.00     0.163 HD
ATOM     56  C   LYS B   1      11.457  91.336  65.019  1.00  0.00     0.254 C 
ATOM     57  O   LYS B   1      11.660  90.587  64.057  1.00  0.00    -0.271 OA
BRANCH  56  58
ATOM     58  CA  LYS B   1      12.473  92.368  65.448  1.00  0.00     0.350 C 
BRANCH  58  59
ATOM     59  N   LYS B   1      13.833  91.889  65.221  1.00  0.00     0.312 N 
ATOM     60  H   LYS B   1      14.516  92.455  65.815  1.00  0.00     0.359 HD
ENDBRANCH  58  59
BRANCH  58  61
ATOM     61  CB  LYS B   1      12.261  93.706  64.688  1.00  0.00     0.048 C 
BRANCH  61  62
ATOM     62  CG  LYS B   1      13.273  93.925  63.535  1.00  0.00     0.004 C 
BRANCH  62  63
ATOM     63  CD  LYS B   1      13.411  95.376  63.066  1.00  0.00     0.027 C 
BRANCH  63  64
ATOM     64  CE  LYS B   1      12.171  95.765  62.250  1.00  0.00     0.229 C 
BRANCH  64  65
ATOM     65  NZ  LYS B   1      12.532  95.858  60.825  1.00  0.00    -0.079 N 
ATOM     66  HZ3 LYS B   1      11.707  95.595  60.305  1.00  0.00     0.274 HD
ATOM     67  HZ2 LYS B   1      13.319  95.241  60.598  1.00  0.00     0.274 HD
ATOM     68  HZ1 LYS B   1      12.839  96.810  60.590  1.00  0.00     0.274 HD
ENDBRANCH  64  65
ENDBRANCH  63  64
ENDBRANCH  62  63
ENDBRANCH  61  62
ENDBRANCH  58  61
ENDBRANCH  56  58
ENDBRANCH  50  54
ENDBRANCH  48  50
ENDBRANCH  45  46
BRANCH  45  69
ATOM     69  CB  PHE B   3       5.804  90.889  62.459  1.00  0.00     0.073 C 
BRANCH  69  70
ATOM     70  CG  PHE B   3       5.273  92.190  61.837  1.00  0.00    -0.056 A 
ATOM     71  CD2 PHE B   3       4.997  92.269  60.471  1.00  0.00     0.007 A 
ATOM     72  CE2 PHE B   3       4.450  93.432  59.933  1.00  0.00     0.001 A 
ATOM     73  CZ  PHE B   3       4.173  94.518  60.762  1.00  0.00     0.000 A 
ATOM     74  CE1 PHE B   3       4.446  94.446  62.126  1.00  0.00     0.001 A 
ATOM     75  CD1 PHE B   3       5.002  93.289  62.661  1.00  0.00     0.007 A 
ENDBRANCH  69  70
ENDBRANCH  45  69
ENDBRANCH  42  45
ENDBRANCH   1  41
TORSDOF 30
ENDMDL
MODEL 4
REMARK VINA RESULT:      -6.7      2.426      5.134
REMARK  30 active torsions:
REMARK  status: ('A' for Active; 'I' for Inactive)
REMARK    1  A    between atoms: N_1  and  CA_2 
REMARK    2  A    between atoms: CA_2  and  CB_5 
REMARK    3  A    between atoms: CA_2  and  C_3 
REMARK       I    between atoms: C_3  and  N_14 
REMARK    4  A    between atoms: CB_5  and  CG_6 
REMARK    5  A    between atoms: CG_6  and  CD_7 
REMARK    6  A    between atoms: CD_7  and  CE_8 
REMARK    7  A    between atoms: CE_8  and  NZ_9 
REMARK    8  A    between atoms: N_14  and  CA_15 
REMARK    9  A    between atoms: CA_15  and  CB_18 
REMARK   10  A    between atoms: CA_15  and  C_16 
REMARK       I    between atoms: C_16  and  N_22 
REMARK   11  A    between atoms: CB_18  and  SG_19 
REMARK   12  A    between atoms: N_22  and  CA_23 
REMARK   13  A    between atoms: CA_23  and  CB_26 
REMARK   14  A    between atoms: CA_23  and  C_24 
REMARK       I    between atoms: C_24  and  N_34 
REMARK   15  A    between atoms: CB_26  and  CG_27 
REMARK   16  A    between atoms: N_34  and  CA_35 
REMARK   17  A    between atoms: CA_35  and  CB_38 
REMARK   18  A    between atoms: CA_35  and  C_36 
REMARK       I    between atoms: C_36  and  N_48 
REMARK   19  A    between atoms: CB_38  and  OG_39 
REMARK   20  A    between atoms: CA_42  and  N_48 
REMARK   21  A    between atoms: CA_42  and  CB_44 
REMARK   22  A    between atoms: CA_42  and  C_43 
REMARK       I    between atoms: C_43  and  N_64 
REMARK   23  A    between atoms: CB_44  and  OG1_50 
REMARK   24  A    between atoms: CA_51  and  CB_53 
REMARK   25  A    between atoms: CA_51  and  N_64 
REMARK   26  A    between atoms: CA_51  and  C_52 
REMARK       I    between atoms: C_52  and  N_73 
REMARK   27  A    between atoms: CB_53  and  CG_54 
REMARK   28  A    between atoms: CA_67  and  N_73 
REMARK   29  A    between atoms: CA_67  and  CB_69 
REMARK   30  A    between atoms: CA_67  and  C_68 
ROOT
ATOM      1  CA  SER B   4       6.472  88.906  66.309  1.00  0.00     0.200 C 
ENDROOT
BRANCH   1   2
ATOM      2  CB  SER B   4       7.320  88.919  67.605  1.00  0.00     0.199 C 
BRANCH   2   3
ATOM      3  OG  SER B   4       8.404  87.984  67.570  1.00  0.00    -0.398 OA
ATOM      4  HG  SER B   4       8.732  87.957  66.669  1.00  0.00     0.209 HD
ENDBRANCH   2   3
ENDBRANCH   1   2
BRANCH   1   5
ATOM      5  C   SER B   4       4.999  88.756  66.610  1.00  0.00     0.243 C 
ATOM      6  O   SER B   4       4.631  88.183  67.642  1.00  0.00    -0.271 OA
ATOM      7  N   THR B   5       4.152  89.215  65.698  1.00  7.70    -0.344 N 
ATOM      8  H   THR B   5       4.510  89.646  64.894  1.00  0.23     0.163 HD
BRANCH   7   9
ATOM      9  CA  THR B   5       2.705  89.111  65.863  1.00  7.88     0.205 C 
BRANCH   9  10
ATOM     10  CB  THR B   5       2.168  90.329  66.616  1.00  4.05     0.146 C 
ATOM     11  CG2 THR B   5       1.279  89.965  67.785  1.00  3.72     0.042 C 
BRANCH  10  12
ATOM     12  OG1 THR B   5       3.233  91.118  67.116  1.00  7.31    -0.393 OA
ATOM     13  HG1 THR B   5       2.947  91.574  67.911  1.00  0.23     0.210 HD
ENDBRANCH  10  12
ENDBRANCH   9  10
BRANCH   9  14
ATOM     14  C   THR B   5       2.017  88.993  64.507  1.00  7.05     0.243 C 
ATOM     15  N   TRP B   6       2.548  88.126  63.651  1.00  0.00    -0.346 N 
ATOM     16  H   TRP B   6       3.339  87.612  63.919  1.00  0.23     0.163 HD
ATOM     17  O   THR B   5       1.027  89.674  64.241  1.00  6.06    -0.271 OA
BRANCH  15  18
ATOM     18  CA  TRP B   6       1.986  87.924  62.322  1.00  0.00     0.181 C 
BRANCH  18  19
ATOM     19  CB  TRP B   6       2.897  88.547  61.263  1.00  0.00     0.075 C 
BRANCH  19  20
ATOM     20  CG  TRP B   6       4.297  88.015  61.310  1.00  0.00    -0.028 A 
ATOM     21  CD2 TRP B   6       4.917  87.150  60.351  1.00  0.00    -0.002 A 
ATOM     22  CE2 TRP B   6       6.233  86.914  60.792  1.00  0.00     0.042 A 
ATOM     23  CE3 TRP B   6       4.486  86.551  59.164  1.00  0.00     0.014 A 
ATOM     24  CZ2 TRP B   6       7.120  86.107  60.086  1.00  0.00     0.030 A 
ATOM     25  NE1 TRP B   6       6.404  87.605  61.964  1.00  0.00    -0.365 N 
ATOM     26  CH2 TRP B   6       6.673  85.533  58.927  1.00  0.00     0.002 A 
ATOM     27  CZ3 TRP B   6       5.370  85.749  58.464  1.00  0.00     0.001 A 
ATOM     28  HE1 TRP B   6       7.226  87.625  62.498  1.00  0.23     0.165 HD
ATOM     29  CD1 TRP B   6       5.237  88.263  62.267  1.00  0.00     0.096 A 
ENDBRANCH  19  20
ENDBRANCH  18  19
BRANCH  18  30
ATOM     30  C   TRP B   6       1.786  86.439  62.035  1.00  0.00     0.241 C 
ATOM     31  N   VAL B   7       2.132  85.604  63.010  1.00  6.11    -0.344 N 
ATOM     32  H   VAL B   7       2.488  85.968  63.846  1.00  0.23     0.163 HD
ATOM     33  O   TRP B   6       1.333  86.061  60.954  1.00  0.00    -0.271 OA
BRANCH  31  34
ATOM     34  CA  VAL B   7       1.995  84.160  62.866  1.00  5.65     0.189 C 
BRANCH  34  35
ATOM     35  CB  VAL B   7       3.334  83.444  63.129  1.00  1.15     0.010 C 
ATOM     36  CG1 VAL B   7       3.154  81.934  63.067  1.00  4.96     0.012 C 
ATOM     37  CG2 VAL B   7       4.393  83.902  62.137  1.00  9.83     0.012 C 
ENDBRANCH  34  35
BRANCH  34  38
ATOM     38  C   VAL B   7       0.939  83.609  63.819  1.00  4.44     0.197 C 
ATOM     39  OXT VAL B   7       1.120  83.745  65.046  1.00  0.00    -0.646 OA
ATOM     40  O   VAL B   7      -0.062  83.046  63.328  1.00  0.00    -0.646 OA
ENDBRANCH  34  38
ENDBRANCH  31  34
ENDBRANCH  18  30
ENDBRANCH  15  18
ENDBRANCH   9  14
ENDBRANCH   7   9
ENDBRANCH   1   5
BRANCH   1  41
ATOM     41  N   SER B   4       6.722  90.103  65.511  1.00  0.00    -0.344 N 
ATOM     42  C   PHE B   3       7.512  90.103  64.448  1.00  0.00     0.241 C 
ATOM     43  O   PHE B   3       8.089  89.072  64.068  1.00  0.00    -0.271 OA
ATOM     44  H   SER B   4       6.286  90.949  65.777  1.00  0.00     0.163 HD
BRANCH  42  45
ATOM     45  CA  PHE B   3       7.670  91.394  63.679  1.00  0.00     0.180 C 
BRANCH  45  46
ATOM     46  N   PHE B   3       8.978  91.993  63.927  1.00  0.00    -0.346 N 
ATOM     47  H   PHE B   3       9.709  91.821  63.302  1.00  0.00     0.163 HD
ATOM     48  C   CYS B   2       9.201  92.778  64.997  1.00  0.00     0.241 C 
ATOM     49  O   CYS B   2       8.324  93.039  65.816  1.00  0.00    -0.271 OA
BRANCH  48  50
ATOM     50  CA  CYS B   2      10.613  93.294  65.153  1.00  0.00     0.185 C 
BRANCH  50  51
ATOM     51  CB  CYS B   2      10.776  94.733  64.627  1.00  0.00     0.105 C 
BRANCH  51  52
ATOM     52  SG  CYS B   2      11.141  94.729  62.856  1.00  0.00    -0.180 SA
ATOM     53  HG  CYS B   2      11.108  93.409  62.690  1.00  0.00     0.101 HD
ENDBRANCH  51  52
ENDBRANCH  50  51
BRANCH  50  54
ATOM     54  N   CYS B   2      11.564  92.434  64.454  1.00  0.00    -0.345 N 
ATOM     55  H   CYS B   2      11.374  92.161  63.529  1.00  0.00     0.163 HD
ATOM     56  C   LYS B   1      12.686  92.009  65.043  1.00  0.00     0.254 C 
ATOM     57  O   LYS B   1      13.002  92.362  66.184  1.00  0.00    -0.271 OA
BRANCH  56  58
ATOM     58  CA  LYS B   1      13.574  91.109  64.216  1.00  0.00     0.350 C 
BRANCH  58  59
ATOM     59  N   LYS B   1      12.923  90.740  62.963  1.00  0.00     0.312 N 
ATOM     60  H   LYS B   1      12.203  91.484  62.701  1.00  0.00     0.359 HD
ENDBRANCH  58  59
BRANCH  58  61
ATOM     61  CB  LYS B   1      14.932  91.799  63.911  1.00  0.00     0.048 C 
BRANCH  61  62
ATOM     62  CG  LYS B   1      14.951  92.547  62.555  1.00  0.00     0.004 C 
BRANCH  62  63
ATOM     63  CD  LYS B   1      15.622  93.923  62.587  1.00  0.00     0.027 C 
BRANCH  63  64
ATOM     64  CE  LYS B   1      14.851  94.839  63.547  1.00  0.00     0.229 C 
BRANCH  64  65
ATOM     65  NZ  LYS B   1      15.562  96.122  63.677  1.00  0.00    -0.079 N 
ATOM     66  HZ3 LYS B   1      16.003  96.295  62.785  1.00  0.00     0.274 HD
ATOM     67  HZ2 LYS B   1      16.260  96.088  64.428  1.00  0.00     0.274 HD
ATOM     68  HZ1 LYS B   1      14.910  96.875  63.928  1.00  0.00     0.274 HD
ENDBRANCH  64  65
ENDBRANCH  63  64
ENDBRANCH  62  63
ENDBRANCH  61  62
ENDBRANCH  58  61
ENDBRANCH  56  58
ENDBRANCH  50  54
ENDBRANCH  48  50
ENDBRANCH  45  46
BRANCH  45  69
ATOM     69  CB  PHE B   3       7.497  91.097  62.159  1.00  0.00     0.073 C 
BRANCH  69  70
ATOM     70  CG  PHE B   3       6.428  91.918  61.419  1.00  0.00    -0.056 A 
ATOM     71  CD2 PHE B   3       5.682  91.351  60.383  1.00  0.00     0.007 A 
ATOM     72  CE2 PHE B   3       4.669  92.083  59.769  1.00  0.00     0.001 A 
ATOM     73  CZ  PHE B   3       4.394  93.382  60.192  1.00  0.00     0.000 A 
ATOM     74  CE1 PHE B   3       5.135  93.954  61.224  1.00  0.00     0.001 A 
ATOM     75  CD1 PHE B   3       6.154  93.227  61.830  1.00  0.00     0.007 A 
ENDBRANCH  69  70
ENDBRANCH  45  69
ENDBRANCH  42  45
ENDBRANCH   1  41
TORSDOF 30
ENDMDL
MODEL 5
REMARK VINA RESULT:      -4.9      3.084      5.993
REMARK  30 active torsions:
REMARK  status: ('A' for Active; 'I' for Inactive)
REMARK    1  A    between atoms: N_1  and  CA_2 
REMARK    2  A    between atoms: CA_2  and  CB_5 
REMARK    3  A    between atoms: CA_2  and  C_3 
REMARK       I    between atoms: C_3  and  N_14 
REMARK    4  A    between atoms: CB_5  and  CG_6 
REMARK    5  A    between atoms: CG_6  and  CD_7 
REMARK    6  A    between atoms: CD_7  and  CE_8 
REMARK    7  A    between atoms: CE_8  and  NZ_9 
REMARK    8  A    between atoms: N_14  and  CA_15 
REMARK    9  A    between atoms: CA_15  and  CB_18 
REMARK   10  A    between atoms: CA_15  and  C_16 
REMARK       I    between atoms: C_16  and  N_22 
REMARK   11  A    between atoms: CB_18  and  SG_19 
REMARK   12  A    between atoms: N_22  and  CA_23 
REMARK   13  A    between atoms: CA_23  and  CB_26 
REMARK   14  A    between atoms: CA_23  and  C_24 
REMARK       I    between atoms: C_24  and  N_34 
REMARK   15  A    between atoms: CB_26  and  CG_27 
REMARK   16  A    between atoms: N_34  and  CA_35 
REMARK   17  A    between atoms: CA_35  and  CB_38 
REMARK   18  A    between atoms: CA_35  and  C_36 
REMARK       I    between atoms: C_36  and  N_48 
REMARK   19  A    between atoms: CB_38  and  OG_39 
REMARK   20  A    between atoms: CA_42  and  N_48 
REMARK   21  A    between atoms: CA_42  and  CB_44 
REMARK   22  A    between atoms: CA_42  and  C_43 
REMARK       I    between atoms: C_43  and  N_64 
REMARK   23  A    between atoms: CB_44  and  OG1_50 
REMARK   24  A    between atoms: CA_51  and  CB_53 
REMARK   25  A    between atoms: CA_51  and  N_64 
REMARK   26  A    between atoms: CA_51  and  C_52 
REMARK       I    between atoms: C_52  and  N_73 
REMARK   27  A    between atoms: CB_53  and  CG_54 
REMARK   28  A    between atoms: CA_67  and  N_73 
REMARK   29  A    between atoms: CA_67  and  CB_69 
REMARK   30  A    between atoms: CA_67  and  C_68 
ROOT
ATOM      1  CA  SER B   4       5.591  87.949  67.072  1.00  0.00     0.200 C 
ENDROOT
BRANCH   1   2
ATOM      2  CB  SER B   4       6.849  87.563  67.890  1.00  0.00     0.199 C 
BRANCH   2   3
ATOM      3  OG  SER B   4       6.865  86.182  68.268  1.00  0.00    -0.398 OA
ATOM      4  HG  SER B   4       7.741  85.989  68.611  1.00  0.00     0.209 HD
ENDBRANCH   2   3
ENDBRANCH   1   2
BRANCH   1   5
ATOM      5  C   SER B   4       4.320  87.651  67.833  1.00  0.00     0.243 C 
ATOM      6  O   SER B   4       4.374  87.257  69.003  1.00  0.00    -0.271 OA
ATOM      7  N   THR B   5       3.180  87.782  67.167  1.00  7.70    -0.344 N 
ATOM      8  H   THR B   5       3.208  88.084  66.235  1.00  0.23     0.163 HD
BRANCH   7   9
ATOM      9  CA  THR B   5       1.886  87.504  67.784  1.00  7.88     0.205 C 
BRANCH   9  10
ATOM     10  CB  THR B   5       1.413  88.714  68.591  1.00  4.05     0.146 C 
ATOM     11  CG2 THR B   5       2.084  90.007  68.180  1.00  3.72     0.042 C 
BRANCH  10  12
ATOM     12  OG1 THR B   5       0.015  88.894  68.451  1.00  7.31    -0.393 OA
ATOM     13  HG1 THR B   5      -0.208  89.813  68.612  1.00  0.23     0.210 HD
ENDBRANCH  10  12
ENDBRANCH   9  10
BRANCH   9  14
ATOM     14  C   THR B   5       0.850  87.149  66.723  1.00  7.05     0.243 C 
ATOM     15  N   TRP B   6       0.993  87.737  65.540  1.00  0.00    -0.346 N 
ATOM     16  H   TRP B   6       1.739  88.357  65.401  1.00  0.23     0.163 HD
ATOM     17  O   THR B   5      -0.062  86.361  66.972  1.00  6.06    -0.271 OA
BRANCH  15  18
ATOM     18  CA  TRP B   6       0.067  87.485  64.444  1.00  0.00     0.181 C 
BRANCH  18  19
ATOM     19  CB  TRP B   6      -0.052  88.724  63.557  1.00  0.00     0.075 C 
BRANCH  19  20
ATOM     20  CG  TRP B   6       1.178  88.977  62.739  1.00  0.00    -0.028 A 
ATOM     21  CD2 TRP B   6       1.305  88.843  61.319  1.00  0.00    -0.002 A 
ATOM     22  CE2 TRP B   6       2.628  89.188  60.984  1.00  0.00     0.042 A 
ATOM     23  CE3 TRP B   6       0.429  88.463  60.299  1.00  0.00     0.014 A 
ATOM     24  CZ2 TRP B   6       3.093  89.166  59.672  1.00  0.00     0.030 A 
ATOM     25  NE1 TRP B   6       3.275  89.518  62.147  1.00  0.00    -0.365 N 
ATOM     26  CH2 TRP B   6       2.215  88.790  58.693  1.00  0.00     0.002 A 
ATOM     27  CZ3 TRP B   6       0.894  88.441  58.996  1.00  0.00     0.001 A 
ATOM     28  HE1 TRP B   6       4.211  89.799  62.219  1.00  0.23     0.165 HD
ATOM     29  CD1 TRP B   6       2.397  89.388  63.196  1.00  0.00     0.096 A 
ENDBRANCH  19  20
ENDBRANCH  18  19
BRANCH  18  30
ATOM     30  C   TRP B   6       0.516  86.285  63.616  1.00  0.00     0.241 C 
ATOM     31  N   VAL B   7       1.553  85.603  64.091  1.00  6.11    -0.344 N 
ATOM     32  H   VAL B   7       1.971  85.891  64.928  1.00  0.23     0.163 HD
ATOM     33  O   TRP B   6      -0.062  85.989  62.569  1.00  0.00    -0.271 OA
BRANCH  31  34
ATOM     34  CA  VAL B   7       2.086  84.438  63.396  1.00  5.65     0.189 C 
BRANCH  34  35
ATOM     35  CB  VAL B   7       3.167  84.844  62.374  1.00  1.15     0.010 C 
ATOM     36  CG1 VAL B   7       2.593  84.855  60.965  1.00  4.96     0.012 C 
ATOM     37  CG2 VAL B   7       3.757  86.201  62.727  1.00  9.83     0.012 C 
ENDBRANCH  34  35
BRANCH  34  38
ATOM     38  C   VAL B   7       2.681  83.434  64.379  1.00  4.44     0.197 C 
ATOM     39  OXT VAL B   7       2.312  83.482  65.570  1.00  0.00    -0.646 OA
ATOM     40  O   VAL B   7       3.511  82.607  63.946  1.00  0.00    -0.646 OA
ENDBRANCH  34  38
ENDBRANCH  31  34
ENDBRANCH  18  30
ENDBRANCH  15  18
ENDBRANCH   9  14
ENDBRANCH   7   9
ENDBRANCH   1   5
BRANCH   1  41
ATOM     41  N   SER B   4       5.642  89.351  66.669  1.00  0.00    -0.344 N 
ATOM     42  C   PHE B   3       6.274  89.762  65.579  1.00  0.00     0.241 C 
ATOM     43  O   PHE B   3       6.863  88.964  64.832  1.00  0.00    -0.271 OA
ATOM     44  H   SER B   4       5.189  90.023  67.235  1.00  0.00     0.163 HD
BRANCH  42  45
ATOM     45  CA  PHE B   3       6.232  91.233  65.244  1.00  0.00     0.180 C 
BRANCH  45  46
ATOM     46  N   PHE B   3       7.506  91.680  64.691  1.00  0.00    -0.346 N 
ATOM     47  H   PHE B   3       7.909  91.181  63.953  1.00  0.00     0.163 HD
ATOM     48  C   CYS B   2       8.141  92.765  65.172  1.00  0.00     0.241 C 
ATOM     49  O   CYS B   2       7.687  93.439  66.092  1.00  0.00    -0.271 OA
BRANCH  48  50
ATOM     50  CA  CYS B   2       9.474  93.085  64.536  1.00  0.00     0.185 C 
BRANCH  50  51
ATOM     51  CB  CYS B   2       9.338  93.481  63.053  1.00  0.00     0.105 C 
BRANCH  51  52
ATOM     52  SG  CYS B   2      10.687  94.578  62.557  1.00  0.00    -0.180 SA
ATOM     53  HG  CYS B   2      11.096  93.864  61.511  1.00  0.00     0.101 HD
ENDBRANCH  51  52
ENDBRANCH  50  51
BRANCH  50  54
ATOM     54  N   CYS B   2      10.385  91.948  64.631  1.00  0.00    -0.345 N 
ATOM     55  H   CYS B   2      10.121  91.087  64.238  1.00  0.00     0.163 HD
ATOM     56  C   LYS B   1      11.571  92.051  65.239  1.00  0.00     0.254 C 
ATOM     57  O   LYS B   1      11.979  93.120  65.705  1.00  0.00    -0.271 OA
BRANCH  56  58
ATOM     58  CA  LYS B   1      12.410  90.795  65.284  1.00  0.00     0.350 C 
BRANCH  58  59
ATOM     59  N   LYS B   1      12.113  89.927  64.149  1.00  0.00     0.312 N 
ATOM     60  H   LYS B   1      12.854  90.062  63.393  1.00  0.00     0.359 HD
ENDBRANCH  58  59
BRANCH  58  61
ATOM     61  CB  LYS B   1      13.924  91.140  65.291  1.00  0.00     0.048 C 
BRANCH  61  62
ATOM     62  CG  LYS B   1      14.528  91.285  63.872  1.00  0.00     0.004 C 
BRANCH  62  63
ATOM     63  CD  LYS B   1      15.641  92.330  63.749  1.00  0.00     0.027 C 
BRANCH  63  64
ATOM     64  CE  LYS B   1      15.540  93.019  62.381  1.00  0.00     0.229 C 
BRANCH  64  65
ATOM     65  NZ  LYS B   1      15.857  94.450  62.529  1.00  0.00    -0.079 N 
ATOM     66  HZ3 LYS B   1      15.204  94.816  63.208  1.00  0.00     0.274 HD
ATOM     67  HZ2 LYS B   1      15.771  94.945  61.636  1.00  0.00     0.274 HD
ATOM     68  HZ1 LYS B   1      16.829  94.576  62.834  1.00  0.00     0.274 HD
ENDBRANCH  64  65
ENDBRANCH  63  64
ENDBRANCH  62  63
ENDBRANCH  61  62
ENDBRANCH  58  61
ENDBRANCH  56  58
ENDBRANCH  50  54
ENDBRANCH  48  50
ENDBRANCH  45  46
BRANCH  45  69
ATOM     69  CB  PHE B   3       5.086  91.482  64.217  1.00  0.00     0.073 C 
BRANCH  69  70
ATOM     70  CG  PHE B   3       5.491  92.129  62.882  1.00  0.00    -0.056 A 
ATOM     71  CD2 PHE B   3       6.125  91.381  61.888  1.00  0.00     0.007 A 
ATOM     72  CE2 PHE B   3       6.423  91.963  60.658  1.00  0.00     0.001 A 
ATOM     73  CZ  PHE B   3       6.082  93.292  60.416  1.00  0.00     0.000 A 
ATOM     74  CE1 PHE B   3       5.451  94.044  61.404  1.00  0.00     0.001 A 
ATOM     75  CD1 PHE B   3       5.163  93.467  62.636  1.00  0.00     0.007 A 
ENDBRANCH  69  70
ENDBRANCH  45  69
ENDBRANCH  42  45
ENDBRANCH   1  41
TORSDOF 30
ENDMDL
MODEL 6
REMARK VINA RESULT:      -4.8      3.621      7.080
REMARK  30 active torsions:
REMARK  status: ('A' for Active; 'I' for Inactive)
REMARK    1  A    between atoms: N_1  and  CA_2 
REMARK    2  A    between atoms: CA_2  and  CB_5 
REMARK    3  A    between atoms: CA_2  and  C_3 
REMARK       I    between atoms: C_3  and  N_14 
REMARK    4  A    between atoms: CB_5  and  CG_6 
REMARK    5  A    between atoms: CG_6  and  CD_7 
REMARK    6  A    between atoms: CD_7  and  CE_8 
REMARK    7  A    between atoms: CE_8  and  NZ_9 
REMARK    8  A    between atoms: N_14  and  CA_15 
REMARK    9  A    between atoms: CA_15  and  CB_18 
REMARK   10  A    between atoms: CA_15  and  C_16 
REMARK       I    between atoms: C_16  and  N_22 
REMARK   11  A    between atoms: CB_18  and  SG_19 
REMARK   12  A    between atoms: N_22  and  CA_23 
REMARK   13  A    between atoms: CA_23  and  CB_26 
REMARK   14  A    between atoms: CA_23  and  C_24 
REMARK       I    between atoms: C_24  and  N_34 
REMARK   15  A    between atoms: CB_26  and  CG_27 
REMARK   16  A    between atoms: N_34  and  CA_35 
REMARK   17  A    between atoms: CA_35  and  CB_38 
REMARK   18  A    between atoms: CA_35  and  C_36 
REMARK       I    between atoms: C_36  and  N_48 
REMARK   19  A    between atoms: CB_38  and  OG_39 
REMARK   20  A    between atoms: CA_42  and  N_48 
REMARK   21  A    between atoms: CA_42  and  CB_44 
REMARK   22  A    between atoms: CA_42  and  C_43 
REMARK       I    between atoms: C_43  and  N_64 
REMARK   23  A    between atoms: CB_44  and  OG1_50 
REMARK   24  A    between atoms: CA_51  and  CB_53 
REMARK   25  A    between atoms: CA_51  and  N_64 
REMARK   26  A    between atoms: CA_51  and  C_52 
REMARK       I    between atoms: C_52  and  N_73 
REMARK   27  A    between atoms: CB_53  and  CG_54 
REMARK   28  A    between atoms: CA_67  and  N_73 
REMARK   29  A    between atoms: CA_67  and  CB_69 
REMARK   30  A    between atoms: CA_67  and  C_68 
ROOT
ATOM      1  CA  SER B   4       5.919  87.402  67.721  1.00  0.00     0.200 C 
ENDROOT
BRANCH   1   2
ATOM      2  CB  SER B   4       7.344  87.546  68.312  1.00  0.00     0.199 C 
BRANCH   2   3
ATOM      3  OG  SER B   4       7.973  86.286  68.562  1.00  0.00    -0.398 OA
ATOM      4  HG  SER B   4       7.577  85.643  67.969  1.00  0.00     0.209 HD
ENDBRANCH   2   3
ENDBRANCH   1   2
BRANCH   1   5
ATOM      5  C   SER B   4       4.938  86.895  68.754  1.00  0.00     0.243 C 
ATOM      6  O   SER B   4       5.313  86.675  69.911  1.00  0.00    -0.271 OA
ATOM      7  N   THR B   5       3.701  86.657  68.338  1.00  7.70    -0.344 N 
ATOM      8  H   THR B   5       3.473  86.839  67.402  1.00  0.23     0.163 HD
BRANCH   7   9
ATOM      9  CA  THR B   5       2.667  86.147  69.233  1.00  7.88     0.205 C 
BRANCH   9  10
ATOM     10  CB  THR B   5       1.648  87.243  69.547  1.00  4.05     0.146 C 
ATOM     11  CG2 THR B   5       1.853  88.500  68.730  1.00  3.72     0.042 C 
BRANCH  10  12
ATOM     12  OG1 THR B   5       0.330  86.785  69.307  1.00  7.31    -0.393 OA
ATOM     13  HG1 THR B   5       0.351  86.073  68.664  1.00  0.23     0.210 HD
ENDBRANCH  10  12
ENDBRANCH   9  10
BRANCH   9  14
ATOM     14  C   THR B   5       1.963  84.945  68.612  1.00  7.05     0.243 C 
ATOM     15  N   TRP B   6       1.658  85.044  67.323  1.00  0.00    -0.346 N 
ATOM     16  H   TRP B   6       1.891  85.862  66.837  1.00  0.23     0.163 HD
ATOM     17  O   THR B   5       1.700  83.950  69.287  1.00  6.06    -0.271 OA
BRANCH  15  18
ATOM     18  CA  TRP B   6       0.981  83.966  66.614  1.00  0.00     0.181 C 
BRANCH  18  19
ATOM     19  CB  TRP B   6      -0.062  84.539  65.652  1.00  0.00     0.075 C 
BRANCH  19  20
ATOM     20  CG  TRP B   6       0.258  85.934  65.208  1.00  0.00    -0.028 A 
ATOM     21  CD2 TRP B   6       0.364  86.399  63.857  1.00  0.00    -0.002 A 
ATOM     22  CE2 TRP B   6       0.672  87.772  63.912  1.00  0.00     0.042 A 
ATOM     23  CE3 TRP B   6       0.229  85.788  62.607  1.00  0.00     0.014 A 
ATOM     24  CZ2 TRP B   6       0.845  88.541  62.765  1.00  0.00     0.030 A 
ATOM     25  NE1 TRP B   6       0.750  88.124  65.234  1.00  0.00    -0.365 N 
ATOM     26  CH2 TRP B   6       0.708  87.918  61.554  1.00  0.00     0.002 A 
ATOM     27  CZ3 TRP B   6       0.402  86.555  61.469  1.00  0.00     0.001 A 
ATOM     28  HE1 TRP B   6       0.950  89.021  65.575  1.00  0.23     0.165 HD
ATOM     29  CD1 TRP B   6       0.500  87.014  66.005  1.00  0.00     0.096 A 
ENDBRANCH  19  20
ENDBRANCH  18  19
BRANCH  18  30
ATOM     30  C   TRP B   6       1.980  83.102  65.851  1.00  0.00     0.241 C 
ATOM     31  N   VAL B   7       2.043  83.302  64.538  1.00  6.11    -0.344 N 
ATOM     32  H   VAL B   7       1.462  83.976  64.130  1.00  0.23     0.163 HD
ATOM     33  O   TRP B   6       2.675  82.273  66.439  1.00  0.00    -0.271 OA
BRANCH  31  34
ATOM     34  CA  VAL B   7       2.953  82.542  63.691  1.00  5.65     0.189 C 
BRANCH  34  35
ATOM     35  CB  VAL B   7       2.183  81.561  62.785  1.00  1.15     0.010 C 
ATOM     36  CG1 VAL B   7       2.196  80.161  63.380  1.00  4.96     0.012 C 
ATOM     37  CG2 VAL B   7       0.756  82.041  62.565  1.00  9.83     0.012 C 
ENDBRANCH  34  35
BRANCH  34  38
ATOM     38  C   VAL B   7       3.798  83.467  62.820  1.00  4.44     0.197 C 
ATOM     39  OXT VAL B   7       4.857  83.020  62.335  1.00  0.00    -0.646 OA
ATOM     40  O   VAL B   7       3.390  84.632  62.630  1.00  0.00    -0.646 OA
ENDBRANCH  34  38
ENDBRANCH  31  34
ENDBRANCH  18  30
ENDBRANCH  15  18
ENDBRANCH   9  14
ENDBRANCH   7   9
ENDBRANCH   1   5
BRANCH   1  41
ATOM     41  N   SER B   4       5.464  88.663  67.144  1.00  0.00    -0.344 N 
ATOM     42  C   PHE B   3       6.035  89.213  66.083  1.00  0.00     0.241 C 
ATOM     43  O   PHE B   3       7.000  88.676  65.514  1.00  0.00    -0.271 OA
ATOM     44  H   SER B   4       4.700  89.128  67.565  1.00  0.00     0.163 HD
BRANCH  42  45
ATOM     45  CA  PHE B   3       5.458  90.504  65.552  1.00  0.00     0.180 C 
BRANCH  45  46
ATOM     46  N   PHE B   3       6.352  91.112  64.572  1.00  0.00    -0.346 N 
ATOM     47  H   PHE B   3       6.526  90.646  63.731  1.00  0.00     0.163 HD
ATOM     48  C   CYS B   2       6.941  92.301  64.798  1.00  0.00     0.241 C 
ATOM     49  O   CYS B   2       6.758  92.940  65.830  1.00  0.00    -0.271 OA
BRANCH  48  50
ATOM     50  CA  CYS B   2       7.877  92.789  63.716  1.00  0.00     0.185 C 
BRANCH  50  51
ATOM     51  CB  CYS B   2       7.562  92.169  62.342  1.00  0.00     0.105 C 
BRANCH  51  52
ATOM     52  SG  CYS B   2       6.673  93.345  61.297  1.00  0.00    -0.180 SA
ATOM     53  HG  CYS B   2       7.380  93.139  60.188  1.00  0.00     0.101 HD
ENDBRANCH  51  52
ENDBRANCH  50  51
BRANCH  50  54
ATOM     54  N   CYS B   2       9.266  92.491  64.054  1.00  0.00    -0.345 N 
ATOM     55  H   CYS B   2       9.851  93.217  64.365  1.00  0.00     0.163 HD
ATOM     56  C   LYS B   1       9.760  91.254  63.949  1.00  0.00     0.254 C 
ATOM     57  O   LYS B   1       9.060  90.293  63.615  1.00  0.00    -0.271 OA
BRANCH  56  58
ATOM     58  CA  LYS B   1      11.217  91.084  64.311  1.00  0.00     0.350 C 
BRANCH  58  59
ATOM     59  N   LYS B   1      11.821  89.992  63.552  1.00  0.00     0.312 N 
ATOM     60  H   LYS B   1      11.557  90.084  62.522  1.00  0.00     0.359 HD
ENDBRANCH  58  59
BRANCH  58  61
ATOM     61  CB  LYS B   1      12.010  92.395  64.052  1.00  0.00     0.048 C 
BRANCH  61  62
ATOM     62  CG  LYS B   1      13.337  92.479  64.846  1.00  0.00     0.004 C 
BRANCH  62  63
ATOM     63  CD  LYS B   1      14.527  93.030  64.055  1.00  0.00     0.027 C 
BRANCH  63  64
ATOM     64  CE  LYS B   1      15.200  91.883  63.289  1.00  0.00     0.229 C 
BRANCH  64  65
ATOM     65  NZ  LYS B   1      15.547  92.338  61.932  1.00  0.00    -0.079 N 
ATOM     66  HZ3 LYS B   1      16.330  92.968  62.034  1.00  0.00     0.274 HD
ATOM     67  HZ2 LYS B   1      14.755  92.810  61.482  1.00  0.00     0.274 HD
ATOM     68  HZ1 LYS B   1      15.781  91.539  61.330  1.00  0.00     0.274 HD
ENDBRANCH  64  65
ENDBRANCH  63  64
ENDBRANCH  62  63
ENDBRANCH  61  62
ENDBRANCH  58  61
ENDBRANCH  56  58
ENDBRANCH  50  54
ENDBRANCH  48  50
ENDBRANCH  45  46
BRANCH  45  69
ATOM     69  CB  PHE B   3       4.073  90.206  64.902  1.00  0.00     0.073 C 
BRANCH  69  70
ATOM     70  CG  PHE B   3       4.091  89.722  63.443  1.00  0.00    -0.056 A 
ATOM     71  CD2 PHE B   3       3.922  90.622  62.389  1.00  0.00     0.007 A 
ATOM     72  CE2 PHE B   3       4.011  90.180  61.071  1.00  0.00     0.001 A 
ATOM     73  CZ  PHE B   3       4.275  88.838  60.803  1.00  0.00     0.000 A 
ATOM     74  CE1 PHE B   3       4.444  87.935  61.850  1.00  0.00     0.001 A 
ATOM     75  CD1 PHE B   3       4.344  88.373  63.166  1.00  0.00     0.007 A 
ENDBRANCH  69  70
ENDBRANCH  45  69
ENDBRANCH  42  45
ENDBRANCH   1  41
TORSDOF 30
ENDMDL
