REMARK  30 active torsions:
REMARK  status: ('A' for Active; 'I' for Inactive)
REMARK    1  A    between atoms: N_1  and  CA_2 
REMARK    2  A    between atoms: CA_2  and  CB_5 
REMARK    3  A    between atoms: CA_2  and  C_3 
REMARK       I    between atoms: C_3  and  N_14 
REMARK    4  A    between atoms: CB_5  and  CG_6 
REMARK    5  A    between atoms: CG_6  and  CD_7 
REMARK    6  A    between atoms: CD_7  and  CE_8 
REMARK    7  A    between atoms: CE_8  and  NZ_9 
REMARK    8  A    between atoms: N_14  and  CA_15 
REMARK    9  A    between atoms: CA_15  and  CB_18 
REMARK   10  A    between atoms: CA_15  and  C_16 
REMARK       I    between atoms: C_16  and  N_22 
REMARK   11  A    between atoms: CB_18  and  SG_19 
REMARK   12  A    between atoms: N_22  and  CA_23 
REMARK   13  A    between atoms: CA_23  and  CB_26 
REMARK   14  A    between atoms: CA_23  and  C_24 
REMARK       I    between atoms: C_24  and  N_34 
REMARK   15  A    between atoms: CB_26  and  CG_27 
REMARK   16  A    between atoms: N_34  and  CA_35 
REMARK   17  A    between atoms: CA_35  and  CB_38 
REMARK   18  A    between atoms: CA_35  and  C_36 
REMARK       I    between atoms: C_36  and  N_49 
REMARK   19  A    between atoms: CB_38  and  CG_39 
REMARK   20  A    between atoms: CA_43  and  N_49 
REMARK   21  A    between atoms: CA_43  and  CB_45 
REMARK   22  A    between atoms: CA_43  and  C_44 
REMARK       I    between atoms: C_44  and  N_65 
REMARK   23  A    between atoms: CB_45  and  OG1_51 
REMARK   24  A    between atoms: CA_52  and  CB_54 
REMARK   25  A    between atoms: CA_52  and  N_65 
REMARK   26  A    between atoms: CA_52  and  C_53 
REMARK       I    between atoms: C_53  and  N_74 
REMARK   27  A    between atoms: CB_54  and  CG_55 
REMARK   28  A    between atoms: CA_68  and  N_74 
REMARK   29  A    between atoms: CA_68  and  CB_70 
REMARK   30  A    between atoms: CA_68  and  C_69 
ROOT
ATOM      1  CA  ASP B   4       2.937  -2.074  -1.416  1.00  0.00     0.186 C 
ENDROOT
BRANCH   1   2
ATOM      2  CB  ASP B   4       1.603  -1.617  -2.069  1.00  0.00     0.147 C 
BRANCH   2   3
ATOM      3  CG  ASP B   4       1.716  -0.444  -3.053  1.00  0.00     0.175 C 
ATOM      4  OD2 ASP B   4       0.679  -0.030  -3.612  1.00  0.00    -0.648 OA
ATOM      5  OD1 ASP B   4       2.829   0.092  -3.234  1.00  0.00    -0.648 OA
ENDBRANCH   2   3
ENDBRANCH   1   2
BRANCH   1   6
ATOM      6  C   ASP B   4       3.550  -0.959  -0.604  1.00  0.00     0.241 C 
ATOM      7  O   ASP B   4       3.056  -0.622   0.476  1.00  0.00    -0.271 OA
ATOM      8  N   THR B   5       4.607  -0.349  -1.134  1.00  7.70    -0.344 N 
ATOM      9  H   THR B   5       4.944  -0.656  -2.002  1.00  0.23     0.163 HD
BRANCH   8  10
ATOM     10  CA  THR B   5       5.286   0.753  -0.459  1.00  7.88     0.205 C 
BRANCH  10  11
ATOM     11  CB  THR B   5       6.709   0.344  -0.075  1.00  4.05     0.146 C 
ATOM     12  CG2 THR B   5       7.356   1.289   0.914  1.00  3.72     0.042 C 
BRANCH  11  13
ATOM     13  OG1 THR B   5       6.720  -0.951   0.499  1.00  7.31    -0.393 OA
ATOM     14  HG1 THR B   5       6.777  -1.609  -0.197  1.00  0.23     0.210 HD
ENDBRANCH  11  13
ENDBRANCH  10  11
BRANCH  10  15
ATOM     15  C   THR B   5       5.323   1.989  -1.352  1.00  7.05     0.243 C 
ATOM     16  N   TRP B   6       4.731   3.078  -0.874  1.00  0.00    -0.346 N 
ATOM     17  H   TRP B   6       4.307   3.044   0.009  1.00  0.23     0.163 HD
ATOM     18  O   THR B   5       5.874   1.955  -2.452  1.00  6.06    -0.271 OA
BRANCH  16  19
ATOM     19  CA  TRP B   6       4.694   4.322  -1.632  1.00  0.00     0.181 C 
BRANCH  19  20
ATOM     20  CB  TRP B   6       3.466   5.144  -1.238  1.00  0.00     0.075 C 
BRANCH  20  21
ATOM     21  CG  TRP B   6       2.176   4.494  -1.635  1.00  0.00    -0.028 A 
ATOM     22  CD2 TRP B   6       1.490   4.644  -2.884  1.00  0.00    -0.002 A 
ATOM     23  CE2 TRP B   6       0.330   3.849  -2.820  1.00  0.00     0.042 A 
ATOM     24  CE3 TRP B   6       1.744   5.374  -4.048  1.00  0.00     0.014 A 
ATOM     25  CZ2 TRP B   6      -0.572   3.764  -3.877  1.00  0.00     0.030 A 
ATOM     26  NE1 TRP B   6       0.312   3.244  -1.590  1.00  0.00    -0.365 N 
ATOM     27  CH2 TRP B   6      -0.300   4.489  -5.005  1.00  0.00     0.002 A 
ATOM     28  CZ3 TRP B   6       0.846   5.288  -5.097  1.00  0.00     0.001 A 
ATOM     29  HE1 TRP B   6      -0.381   2.631  -1.266  1.00  0.23     0.165 HD
ATOM     30  CD1 TRP B   6       1.424   3.637  -0.885  1.00  0.00     0.096 A 
ENDBRANCH  20  21
ENDBRANCH  19  20
BRANCH  19  31
ATOM     31  C   TRP B   6       5.965   5.135  -1.408  1.00  0.00     0.241 C 
ATOM     32  N   VAL B   7       6.752   5.293  -2.468  1.00  6.11    -0.344 N 
ATOM     33  H   VAL B   7       6.488   4.893  -3.322  1.00  0.23     0.163 HD
ATOM     34  O   TRP B   6       6.227   5.604  -0.300  1.00  0.00    -0.271 OA
BRANCH  32  35
ATOM     35  CA  VAL B   7       7.998   6.045  -2.391  1.00  5.65     0.189 C 
BRANCH  35  36
ATOM     36  CB  VAL B   7       9.053   5.476  -3.360  1.00  1.15     0.010 C 
ATOM     37  CG1 VAL B   7       9.474   4.078  -2.930  1.00  4.96     0.012 C 
ATOM     38  CG2 VAL B   7       8.523   5.465  -4.786  1.00  9.83     0.012 C 
ENDBRANCH  35  36
BRANCH  35  39
ATOM     39  C   VAL B   7       7.772   7.520  -2.710  1.00  4.44     0.197 C 
ATOM     40  OXT VAL B   7       6.958   7.813  -3.609  1.00  0.00    -0.646 OA
ATOM     41  O   VAL B   7       8.412   8.369  -2.055  1.00  0.00    -0.646 OA
ENDBRANCH  35  39
ENDBRANCH  32  35
ENDBRANCH  19  31
ENDBRANCH  16  19
ENDBRANCH  10  15
ENDBRANCH   8  10
ENDBRANCH   1   6
BRANCH   1  42
ATOM     42  N   ASP B   4       2.726  -3.264  -0.596  1.00  0.00    -0.345 N 
ATOM     43  C   PHE B   3       3.729  -4.019  -0.170  1.00  0.00     0.241 C 
ATOM     44  O   PHE B   3       4.909  -3.750  -0.448  1.00  0.00    -0.271 OA
ATOM     45  H   ASP B   4       1.804  -3.514  -0.350  1.00  0.00     0.163 HD
BRANCH  43  46
ATOM     46  CA  PHE B   3       3.402  -5.210   0.699  1.00  0.00     0.180 C 
BRANCH  46  47
ATOM     47  N   PHE B   3       2.350  -4.885   1.657  1.00  0.00    -0.346 N 
ATOM     48  H   PHE B   3       1.876  -4.034   1.576  1.00  0.00     0.163 HD
ATOM     49  C   CYS B   2       2.016  -5.730   2.650  1.00  0.00     0.241 C 
ATOM     50  O   CYS B   2       2.568  -6.816   2.803  1.00  0.00    -0.271 OA
BRANCH  49  51
ATOM     51  CA  CYS B   2       0.941  -5.245   3.595  1.00  0.00     0.185 C 
BRANCH  51  52
ATOM     52  CB  CYS B   2       1.503  -4.856   4.976  1.00  0.00     0.105 C 
BRANCH  52  53
ATOM     53  SG  CYS B   2       2.757  -3.564   4.816  1.00  0.00    -0.180 SA
ATOM     54  HG  CYS B   2       3.815  -4.342   5.031  1.00  0.00     0.101 HD
ENDBRANCH  52  53
ENDBRANCH  51  52
BRANCH  51  55
ATOM     55  N   CYS B   2      -0.088  -6.264   3.783  1.00  0.00    -0.345 N 
ATOM     56  H   CYS B   2      -0.933  -6.191   3.286  1.00  0.00     0.163 HD
ATOM     57  C   LYS B   1       0.092  -7.294   4.615  1.00  0.00     0.254 C 
ATOM     58  O   LYS B   1       1.152  -7.467   5.226  1.00  0.00    -0.271 OA
BRANCH  57  59
ATOM     59  CA  LYS B   1      -1.058  -8.267   4.732  1.00  0.00     0.350 C 
BRANCH  59  60
ATOM     60  N   LYS B   1      -2.222  -7.630   5.341  1.00  0.00     0.312 N 
ATOM     61  H   LYS B   1      -1.997  -6.610   5.561  1.00  0.00     0.359 HD
ENDBRANCH  59  60
BRANCH  59  62
ATOM     62  CB  LYS B   1      -1.448  -8.835   3.340  1.00  0.00     0.048 C 
BRANCH  62  63
ATOM     63  CG  LYS B   1      -2.450 -10.014   3.415  1.00  0.00     0.004 C 
BRANCH  63  64
ATOM     64  CD  LYS B   1      -2.847 -10.609   2.061  1.00  0.00     0.027 C 
BRANCH  64  65
ATOM     65  CE  LYS B   1      -3.849 -11.750   2.284  1.00  0.00     0.229 C 
BRANCH  65  66
ATOM     66  NZ  LYS B   1      -4.242 -12.318   0.983  1.00  0.00    -0.079 N 
ATOM     67  HZ3 LYS B   1      -4.990 -11.736   0.633  1.00  0.00     0.274 HD
ATOM     68  HZ2 LYS B   1      -4.551 -13.291   1.078  1.00  0.00     0.274 HD
ATOM     69  HZ1 LYS B   1      -3.443 -12.334   0.338  1.00  0.00     0.274 HD
ENDBRANCH  65  66
ENDBRANCH  64  65
ENDBRANCH  63  64
ENDBRANCH  62  63
ENDBRANCH  59  62
ENDBRANCH  57  59
ENDBRANCH  51  55
ENDBRANCH  49  51
ENDBRANCH  46  47
BRANCH  46  70
ATOM     70  CB  PHE B   3       2.949  -6.389  -0.214  1.00  0.00     0.073 C 
BRANCH  70  71
ATOM     71  CG  PHE B   3       3.966  -6.876  -1.259  1.00  0.00    -0.056 A 
ATOM     72  CD2 PHE B   3       3.883  -6.455  -2.588  1.00  0.00     0.007 A 
ATOM     73  CE2 PHE B   3       4.852  -6.848  -3.508  1.00  0.00     0.001 A 
ATOM     74  CZ  PHE B   3       5.910  -7.659  -3.101  1.00  0.00     0.000 A 
ATOM     75  CE1 PHE B   3       5.998  -8.083  -1.777  1.00  0.00     0.001 A 
ATOM     76  CD1 PHE B   3       5.025  -7.700  -0.861  1.00  0.00     0.007 A 
ENDBRANCH  70  71
ENDBRANCH  46  70
ENDBRANCH  43  46
ENDBRANCH   1  42
TORSDOF 30
