MODEL 1
REMARK VINA RESULT:      -6.6      0.000      0.000
REMARK  29 active torsions:
REMARK  status: ('A' for Active; 'I' for Inactive)
REMARK    1  A    between atoms: N_1  and  CA_2 
REMARK    2  A    between atoms: CA_2  and  CB_5 
REMARK    3  A    between atoms: CA_2  and  C_3 
REMARK       I    between atoms: C_3  and  N_14 
REMARK    4  A    between atoms: CB_5  and  CG_6 
REMARK    5  A    between atoms: CG_6  and  CD_7 
REMARK    6  A    between atoms: CD_7  and  CE_8 
REMARK    7  A    between atoms: CE_8  and  NZ_9 
REMARK    8  A    between atoms: N_14  and  CA_15 
REMARK    9  A    between atoms: CA_15  and  C_16 
REMARK   10  A    between atoms: CA_15  and  CB_18 
REMARK       I    between atoms: C_16  and  N_22 
REMARK   11  A    between atoms: CB_18  and  SG_19 
REMARK   12  A    between atoms: N_22  and  CA_23 
REMARK   13  A    between atoms: CA_23  and  C_24 
REMARK       I    between atoms: C_24  and  N_34 
REMARK   14  A    between atoms: CA_28  and  N_34 
REMARK   15  A    between atoms: CA_28  and  CB_30 
REMARK   16  A    between atoms: CA_28  and  C_29 
REMARK       I    between atoms: C_29  and  N_44 
REMARK   17  A    between atoms: CB_30  and  CG_31 
REMARK   18  A    between atoms: CG_31  and  CD_32 
REMARK   19  A    between atoms: CA_38  and  N_44 
REMARK   20  A    between atoms: CA_38  and  CB_40 
REMARK   21  A    between atoms: CA_38  and  C_39 
REMARK       I    between atoms: C_39  and  N_60 
REMARK   22  A    between atoms: CB_40  and  OG1_46 
REMARK   23  A    between atoms: CA_47  and  CB_49 
REMARK   24  A    between atoms: CA_47  and  N_60 
REMARK   25  A    between atoms: CA_47  and  C_48 
REMARK       I    between atoms: C_48  and  N_69 
REMARK   26  A    between atoms: CB_49  and  CG_50 
REMARK   27  A    between atoms: CA_63  and  N_69 
REMARK   28  A    between atoms: CA_63  and  CB_65 
REMARK   29  A    between atoms: CA_63  and  C_64 
ROOT
ATOM      1  C   GLU B   4       6.721  88.602  69.763  1.00  0.00     0.241 C 
ATOM      2  O   GLU B   4       6.696  89.500  70.606  1.00  0.00    -0.271 OA
ATOM      3  H   THR B   5       7.739  87.615  68.355  1.00  0.23     0.163 HD
ATOM      4  N   THR B   5       7.786  88.343  69.010  1.00  7.70    -0.344 N 
ENDROOT
BRANCH   1   5
ATOM      5  CA  GLU B   4       5.500  87.718  69.527  1.00  0.00     0.177 C 
BRANCH   5   6
ATOM      6  N   GLU B   4       4.532  88.387  68.660  1.00  0.00    -0.346 N 
ATOM      7  H   GLU B   4       3.650  88.619  69.017  1.00  0.23     0.163 HD
ATOM      8  C   ALA B   3       4.821  88.663  67.394  1.00  0.00     0.240 C 
ATOM      9  O   ALA B   3       5.913  88.420  66.887  1.00  0.00    -0.271 OA
BRANCH   8  10
ATOM     10  CA  ALA B   3       3.759  89.376  66.592  1.00  0.00     0.172 C 
ATOM     11  CB  ALA B   3       2.334  88.947  66.978  1.00  0.00     0.042 C 
BRANCH  10  12
ATOM     12  N   ALA B   3       3.927  89.125  65.164  1.00  0.00    -0.346 N 
ATOM     13  H   ALA B   3       4.343  88.265  64.881  1.00  0.00     0.163 HD
ATOM     14  C   CYS B   2       3.546  89.996  64.208  1.00  0.00     0.241 C 
ATOM     15  O   CYS B   2       2.999  91.059  64.490  1.00  0.00    -0.271 OA
BRANCH  14  16
ATOM     16  CA  CYS B   2       3.839  89.608  62.777  1.00  0.00     0.185 C 
BRANCH  16  17
ATOM     17  N   CYS B   2       5.263  89.340  62.590  1.00  0.00    -0.345 N 
ATOM     18  C   LYS B   1       5.905  89.716  61.480  1.00  0.00     0.254 C 
ATOM     19  O   LYS B   1       5.322  90.261  60.537  1.00  0.00    -0.271 OA
ATOM     20  H   CYS B   2       5.760  88.872  63.297  1.00  0.00     0.163 HD
BRANCH  18  21
ATOM     21  CA  LYS B   1       7.380  89.395  61.421  1.00  0.00     0.350 C 
BRANCH  21  22
ATOM     22  CB  LYS B   1       7.690  88.425  60.247  1.00  0.00     0.048 C 
BRANCH  22  23
ATOM     23  CG  LYS B   1       7.013  87.040  60.398  1.00  0.00     0.004 C 
BRANCH  23  24
ATOM     24  CD  LYS B   1       6.151  86.612  59.207  1.00  0.00     0.027 C 
BRANCH  24  25
ATOM     25  CE  LYS B   1       6.901  85.546  58.397  1.00  0.00     0.229 C 
BRANCH  25  26
ATOM     26  NZ  LYS B   1       6.218  85.340  57.108  1.00  0.00    -0.079 N 
ATOM     27  HZ3 LYS B   1       6.934  85.384  56.397  1.00  0.00     0.274 HD
ATOM     28  HZ2 LYS B   1       5.500  86.054  56.947  1.00  0.00     0.274 HD
ATOM     29  HZ1 LYS B   1       5.730  84.437  57.097  1.00  0.00     0.274 HD
ENDBRANCH  25  26
ENDBRANCH  24  25
ENDBRANCH  23  24
ENDBRANCH  22  23
ENDBRANCH  21  22
BRANCH  21  30
ATOM     30  N   LYS B   1       7.837  88.803  62.675  1.00  0.00     0.312 N 
ATOM     31  H   LYS B   1       8.017  87.760  62.533  1.00  0.00     0.359 HD
ENDBRANCH  21  30
ENDBRANCH  18  21
ENDBRANCH  16  17
BRANCH  16  32
ATOM     32  CB  CYS B   2       3.044  88.367  62.328  1.00  0.00     0.105 C 
BRANCH  32  33
ATOM     33  SG  CYS B   2       1.687  88.839  61.231  1.00  0.00    -0.180 SA
ATOM     34  HG  CYS B   2       2.265  89.923  60.721  1.00  0.00     0.101 HD
ENDBRANCH  32  33
ENDBRANCH  16  32
ENDBRANCH  14  16
ENDBRANCH  10  12
ENDBRANCH   8  10
ENDBRANCH   5   6
BRANCH   5  35
ATOM     35  CB  GLU B   4       5.937  86.386  68.916  1.00  0.00     0.045 C 
BRANCH  35  36
ATOM     36  CG  GLU B   4       6.462  85.394  69.941  1.00  0.00     0.116 C 
BRANCH  36  37
ATOM     37  CD  GLU B   4       7.802  84.800  69.550  1.00  0.00     0.172 C 
ATOM     38  OE2 GLU B   4       8.323  85.169  68.477  1.00  0.00    -0.648 OA
ATOM     39  OE1 GLU B   4       8.328  83.967  70.316  1.00  0.00    -0.648 OA
ENDBRANCH  36  37
ENDBRANCH  35  36
ENDBRANCH   5  35
ENDBRANCH   1   5
BRANCH   4  40
ATOM     40  CA  THR B   5       9.020  89.113  69.127  1.00  7.88     0.205 C 
BRANCH  40  41
ATOM     41  CB  THR B   5      10.231  88.178  69.127  1.00  4.05     0.146 C 
ATOM     42  CG2 THR B   5      10.356  87.363  70.396  1.00  3.72     0.042 C 
BRANCH  41  43
ATOM     43  OG1 THR B   5      10.164  87.272  68.040  1.00  7.31    -0.393 OA
ATOM     44  HG1 THR B   5      10.549  86.432  68.299  1.00  0.23     0.210 HD
ENDBRANCH  41  43
ENDBRANCH  40  41
BRANCH  40  45
ATOM     45  C   THR B   5       9.138  90.117  67.985  1.00  7.05     0.243 C 
ATOM     46  N   TRP B   6       8.391  89.879  66.913  1.00  0.00    -0.346 N 
ATOM     47  H   TRP B   6       7.810  89.090  66.900  1.00  0.23     0.163 HD
ATOM     48  O   THR B   5       9.893  91.085  68.073  1.00  6.06    -0.271 OA
BRANCH  46  49
ATOM     49  CA  TRP B   6       8.417  90.761  65.753  1.00  0.00     0.181 C 
BRANCH  49  50
ATOM     50  CB  TRP B   6       8.013  92.179  66.159  1.00  0.00     0.075 C 
BRANCH  50  51
ATOM     51  CG  TRP B   6       6.822  92.686  65.404  1.00  0.00    -0.028 A 
ATOM     52  CD2 TRP B   6       6.747  92.944  63.997  1.00  0.00    -0.002 A 
ATOM     53  CE2 TRP B   6       5.443  93.399  63.726  1.00  0.00     0.042 A 
ATOM     54  CE3 TRP B   6       7.657  92.837  62.941  1.00  0.00     0.014 A 
ATOM     55  CZ2 TRP B   6       5.028  93.744  62.443  1.00  0.00     0.030 A 
ATOM     56  NE1 TRP B   6       4.757  93.416  64.913  1.00  0.00    -0.365 N 
ATOM     57  CH2 TRP B   6       5.938  93.630  61.427  1.00  0.00     0.002 A 
ATOM     58  CZ3 TRP B   6       7.242  93.180  61.667  1.00  0.00     0.001 A 
ATOM     59  HE1 TRP B   6       3.823  93.690  65.028  1.00  0.23     0.165 HD
ATOM     60  CD1 TRP B   6       5.593  92.986  65.915  1.00  0.00     0.096 A 
ENDBRANCH  50  51
ENDBRANCH  49  50
BRANCH  49  61
ATOM     61  C   TRP B   6       9.799  90.772  65.107  1.00  0.00     0.241 C 
ATOM     62  N   VAL B   7      10.512  91.882  65.273  1.00  6.11    -0.344 N 
ATOM     63  H   VAL B   7      10.130  92.622  65.789  1.00  0.23     0.163 HD
ATOM     64  O   TRP B   6      10.206  89.800  64.471  1.00  0.00    -0.271 OA
BRANCH  62  65
ATOM     65  CA  VAL B   7      11.847  92.027  64.706  1.00  5.65     0.189 C 
BRANCH  65  66
ATOM     66  CB  VAL B   7      12.216  93.512  64.521  1.00  1.15     0.010 C 
ATOM     67  CG1 VAL B   7      13.344  93.659  63.510  1.00  4.96     0.012 C 
ATOM     68  CG2 VAL B   7      10.999  94.319  64.092  1.00  9.83     0.012 C 
ENDBRANCH  65  66
BRANCH  65  69
ATOM     69  C   VAL B   7      12.896  91.358  65.589  1.00  4.44     0.197 C 
ATOM     70  OXT VAL B   7      13.078  91.812  66.738  1.00  0.00    -0.646 OA
ATOM     71  O   VAL B   7      13.526  90.386  65.123  1.00  0.00    -0.646 OA
ENDBRANCH  65  69
ENDBRANCH  62  65
ENDBRANCH  49  61
ENDBRANCH  46  49
ENDBRANCH  40  45
ENDBRANCH   4  40
TORSDOF 29
ENDMDL
MODEL 2
REMARK VINA RESULT:      -6.3      1.535      2.240
REMARK  29 active torsions:
REMARK  status: ('A' for Active; 'I' for Inactive)
REMARK    1  A    between atoms: N_1  and  CA_2 
REMARK    2  A    between atoms: CA_2  and  CB_5 
REMARK    3  A    between atoms: CA_2  and  C_3 
REMARK       I    between atoms: C_3  and  N_14 
REMARK    4  A    between atoms: CB_5  and  CG_6 
REMARK    5  A    between atoms: CG_6  and  CD_7 
REMARK    6  A    between atoms: CD_7  and  CE_8 
REMARK    7  A    between atoms: CE_8  and  NZ_9 
REMARK    8  A    between atoms: N_14  and  CA_15 
REMARK    9  A    between atoms: CA_15  and  C_16 
REMARK   10  A    between atoms: CA_15  and  CB_18 
REMARK       I    between atoms: C_16  and  N_22 
REMARK   11  A    between atoms: CB_18  and  SG_19 
REMARK   12  A    between atoms: N_22  and  CA_23 
REMARK   13  A    between atoms: CA_23  and  C_24 
REMARK       I    between atoms: C_24  and  N_34 
REMARK   14  A    between atoms: CA_28  and  N_34 
REMARK   15  A    between atoms: CA_28  and  CB_30 
REMARK   16  A    between atoms: CA_28  and  C_29 
REMARK       I    between atoms: C_29  and  N_44 
REMARK   17  A    between atoms: CB_30  and  CG_31 
REMARK   18  A    between atoms: CG_31  and  CD_32 
REMARK   19  A    between atoms: CA_38  and  N_44 
REMARK   20  A    between atoms: CA_38  and  CB_40 
REMARK   21  A    between atoms: CA_38  and  C_39 
REMARK       I    between atoms: C_39  and  N_60 
REMARK   22  A    between atoms: CB_40  and  OG1_46 
REMARK   23  A    between atoms: CA_47  and  CB_49 
REMARK   24  A    between atoms: CA_47  and  N_60 
REMARK   25  A    between atoms: CA_47  and  C_48 
REMARK       I    between atoms: C_48  and  N_69 
REMARK   26  A    between atoms: CB_49  and  CG_50 
REMARK   27  A    between atoms: CA_63  and  N_69 
REMARK   28  A    between atoms: CA_63  and  CB_65 
REMARK   29  A    between atoms: CA_63  and  C_64 
ROOT
ATOM      1  C   GLU B   4       7.002  89.709  68.345  1.00  0.00     0.241 C 
ATOM      2  O   GLU B   4       6.814  90.901  68.593  1.00  0.00    -0.271 OA
ATOM      3  H   THR B   5       8.216  88.286  67.641  1.00  0.23     0.163 HD
ATOM      4  N   THR B   5       8.131  89.247  67.816  1.00  7.70    -0.344 N 
ENDROOT
BRANCH   1   5
ATOM      5  CA  GLU B   4       5.921  88.672  68.633  1.00  0.00     0.177 C 
BRANCH   5   6
ATOM      6  N   GLU B   4       4.768  88.863  67.755  1.00  0.00    -0.346 N 
ATOM      7  H   GLU B   4       3.871  88.905  68.145  1.00  0.23     0.163 HD
ATOM      8  C   ALA B   3       4.916  88.956  66.439  1.00  0.00     0.240 C 
ATOM      9  O   ALA B   3       6.011  88.931  65.883  1.00  0.00    -0.271 OA
BRANCH   8  10
ATOM     10  CA  ALA B   3       3.663  89.174  65.625  1.00  0.00     0.172 C 
ATOM     11  CB  ALA B   3       2.413  88.567  66.283  1.00  0.00     0.042 C 
BRANCH  10  12
ATOM     12  N   ALA B   3       3.794  88.587  64.295  1.00  0.00    -0.346 N 
ATOM     13  H   ALA B   3       4.248  87.704  64.212  1.00  0.00     0.163 HD
ATOM     14  C   CYS B   2       3.330  89.175  63.175  1.00  0.00     0.241 C 
ATOM     15  O   CYS B   2       2.734  90.248  63.214  1.00  0.00    -0.271 OA
BRANCH  14  16
ATOM     16  CA  CYS B   2       3.595  88.461  61.870  1.00  0.00     0.185 C 
BRANCH  16  17
ATOM     17  N   CYS B   2       5.028  88.281  61.654  1.00  0.00    -0.345 N 
ATOM     18  C   LYS B   1       5.784  89.254  61.137  1.00  0.00     0.254 C 
ATOM     19  O   LYS B   1       5.305  90.332  60.769  1.00  0.00    -0.271 OA
ATOM     20  H   CYS B   2       5.446  87.425  61.893  1.00  0.00     0.163 HD
BRANCH  18  21
ATOM     21  CA  LYS B   1       7.255  88.946  60.983  1.00  0.00     0.350 C 
BRANCH  21  22
ATOM     22  CB  LYS B   1       7.478  87.439  60.683  1.00  0.00     0.048 C 
BRANCH  22  23
ATOM     23  CG  LYS B   1       7.471  87.105  59.170  1.00  0.00     0.004 C 
BRANCH  23  24
ATOM     24  CD  LYS B   1       7.365  85.613  58.841  1.00  0.00     0.027 C 
BRANCH  24  25
ATOM     25  CE  LYS B   1       6.466  85.430  57.610  1.00  0.00     0.229 C 
BRANCH  25  26
ATOM     26  NZ  LYS B   1       5.085  85.809  57.952  1.00  0.00    -0.079 N 
ATOM     27  HZ3 LYS B   1       4.678  86.190  57.109  1.00  0.00     0.274 HD
ATOM     28  HZ2 LYS B   1       5.063  86.498  58.711  1.00  0.00     0.274 HD
ATOM     29  HZ1 LYS B   1       4.558  84.995  58.291  1.00  0.00     0.274 HD
ENDBRANCH  25  26
ENDBRANCH  24  25
ENDBRANCH  23  24
ENDBRANCH  22  23
ENDBRANCH  21  22
BRANCH  21  30
ATOM     30  N   LYS B   1       7.996  89.318  62.184  1.00  0.00     0.312 N 
ATOM     31  H   LYS B   1       7.898  90.367  62.355  1.00  0.00     0.359 HD
ENDBRANCH  21  30
ENDBRANCH  18  21
ENDBRANCH  16  17
BRANCH  16  32
ATOM     32  CB  CYS B   2       2.913  87.080  61.806  1.00  0.00     0.105 C 
BRANCH  32  33
ATOM     33  SG  CYS B   2       4.142  85.768  61.619  1.00  0.00    -0.180 SA
ATOM     34  HG  CYS B   2       4.544  85.744  62.887  1.00  0.00     0.101 HD
ENDBRANCH  32  33
ENDBRANCH  16  32
ENDBRANCH  14  16
ENDBRANCH  10  12
ENDBRANCH   8  10
ENDBRANCH   5   6
BRANCH   5  35
ATOM     35  CB  GLU B   4       6.497  87.265  68.463  1.00  0.00     0.045 C 
BRANCH  35  36
ATOM     36  CG  GLU B   4       6.446  86.434  69.734  1.00  0.00     0.116 C 
BRANCH  36  37
ATOM     37  CD  GLU B   4       7.799  86.308  70.408  1.00  0.00     0.172 C 
ATOM     38  OE2 GLU B   4       8.090  87.121  71.310  1.00  0.00    -0.648 OA
ATOM     39  OE1 GLU B   4       8.566  85.397  70.033  1.00  0.00    -0.648 OA
ENDBRANCH  36  37
ENDBRANCH  35  36
ENDBRANCH   5  35
ENDBRANCH   1   5
BRANCH   4  40
ATOM     40  CA  THR B   5       9.247  90.129  67.487  1.00  7.88     0.205 C 
BRANCH  40  41
ATOM     41  CB  THR B   5      10.535  89.621  68.136  1.00  4.05     0.146 C 
ATOM     42  CG2 THR B   5      10.392  88.244  68.748  1.00  3.72     0.042 C 
BRANCH  41  43
ATOM     43  OG1 THR B   5      11.585  89.562  67.187  1.00  7.31    -0.393 OA
ATOM     44  HG1 THR B   5      12.108  90.365  67.239  1.00  0.23     0.210 HD
ENDBRANCH  41  43
ENDBRANCH  40  41
BRANCH  40  45
ATOM     45  C   THR B   5       9.429  90.225  65.976  1.00  7.05     0.243 C 
ATOM     46  N   TRP B   6       9.961  91.352  65.517  1.00  0.00    -0.346 N 
ATOM     47  H   TRP B   6      10.210  92.057  66.152  1.00  0.23     0.163 HD
ATOM     48  O   THR B   5       9.090  89.297  65.241  1.00  6.06    -0.271 OA
BRANCH  46  49
ATOM     49  CA  TRP B   6      10.183  91.568  64.093  1.00  0.00     0.181 C 
BRANCH  49  50
ATOM     50  CB  TRP B   6       9.667  92.948  63.682  1.00  0.00     0.075 C 
BRANCH  50  51
ATOM     51  CG  TRP B   6       8.233  92.931  63.250  1.00  0.00    -0.028 A 
ATOM     52  CD2 TRP B   6       7.082  92.919  64.103  1.00  0.00    -0.002 A 
ATOM     53  CE2 TRP B   6       5.947  92.912  63.271  1.00  0.00     0.042 A 
ATOM     54  CE3 TRP B   6       6.902  92.913  65.489  1.00  0.00     0.014 A 
ATOM     55  CZ2 TRP B   6       4.651  92.900  63.781  1.00  0.00     0.030 A 
ATOM     56  NE1 TRP B   6       6.387  92.919  61.973  1.00  0.00    -0.365 N 
ATOM     57  CH2 TRP B   6       4.503  92.894  65.141  1.00  0.00     0.002 A 
ATOM     58  CZ3 TRP B   6       5.614  92.901  65.993  1.00  0.00     0.001 A 
ATOM     59  HE1 TRP B   6       5.815  92.917  61.176  1.00  0.23     0.165 HD
ATOM     60  CD1 TRP B   6       7.761  92.930  61.970  1.00  0.00     0.096 A 
ENDBRANCH  50  51
ENDBRANCH  49  50
BRANCH  49  61
ATOM     61  C   TRP B   6      11.662  91.434  63.745  1.00  0.00     0.241 C 
ATOM     62  N   VAL B   7      12.337  92.572  63.616  1.00  6.11    -0.344 N 
ATOM     63  H   VAL B   7      11.869  93.422  63.748  1.00  0.23     0.163 HD
ATOM     64  O   TRP B   6      12.177  90.326  63.594  1.00  0.00    -0.271 OA
BRANCH  62  65
ATOM     65  CA  VAL B   7      13.756  92.587  63.282  1.00  5.65     0.189 C 
BRANCH  65  66
ATOM     66  CB  VAL B   7      14.192  93.972  62.766  1.00  1.15     0.010 C 
ATOM     67  CG1 VAL B   7      13.686  95.070  63.690  1.00  4.96     0.012 C 
ATOM     68  CG2 VAL B   7      15.706  94.041  62.625  1.00  9.83     0.012 C 
ENDBRANCH  65  66
BRANCH  65  69
ATOM     69  C   VAL B   7      14.610  92.213  64.490  1.00  4.44     0.197 C 
ATOM     70  OXT VAL B   7      14.103  92.311  65.626  1.00  0.00    -0.646 OA
ATOM     71  O   VAL B   7      15.779  91.825  64.287  1.00  0.00    -0.646 OA
ENDBRANCH  65  69
ENDBRANCH  62  65
ENDBRANCH  49  61
ENDBRANCH  46  49
ENDBRANCH  40  45
ENDBRANCH   4  40
TORSDOF 29
ENDMDL
MODEL 3
REMARK VINA RESULT:      -5.9      2.038      4.848
REMARK  29 active torsions:
REMARK  status: ('A' for Active; 'I' for Inactive)
REMARK    1  A    between atoms: N_1  and  CA_2 
REMARK    2  A    between atoms: CA_2  and  CB_5 
REMARK    3  A    between atoms: CA_2  and  C_3 
REMARK       I    between atoms: C_3  and  N_14 
REMARK    4  A    between atoms: CB_5  and  CG_6 
REMARK    5  A    between atoms: CG_6  and  CD_7 
REMARK    6  A    between atoms: CD_7  and  CE_8 
REMARK    7  A    between atoms: CE_8  and  NZ_9 
REMARK    8  A    between atoms: N_14  and  CA_15 
REMARK    9  A    between atoms: CA_15  and  C_16 
REMARK   10  A    between atoms: CA_15  and  CB_18 
REMARK       I    between atoms: C_16  and  N_22 
REMARK   11  A    between atoms: CB_18  and  SG_19 
REMARK   12  A    between atoms: N_22  and  CA_23 
REMARK   13  A    between atoms: CA_23  and  C_24 
REMARK       I    between atoms: C_24  and  N_34 
REMARK   14  A    between atoms: CA_28  and  N_34 
REMARK   15  A    between atoms: CA_28  and  CB_30 
REMARK   16  A    between atoms: CA_28  and  C_29 
REMARK       I    between atoms: C_29  and  N_44 
REMARK   17  A    between atoms: CB_30  and  CG_31 
REMARK   18  A    between atoms: CG_31  and  CD_32 
REMARK   19  A    between atoms: CA_38  and  N_44 
REMARK   20  A    between atoms: CA_38  and  CB_40 
REMARK   21  A    between atoms: CA_38  and  C_39 
REMARK       I    between atoms: C_39  and  N_60 
REMARK   22  A    between atoms: CB_40  and  OG1_46 
REMARK   23  A    between atoms: CA_47  and  CB_49 
REMARK   24  A    between atoms: CA_47  and  N_60 
REMARK   25  A    between atoms: CA_47  and  C_48 
REMARK       I    between atoms: C_48  and  N_69 
REMARK   26  A    between atoms: CB_49  and  CG_50 
REMARK   27  A    between atoms: CA_63  and  N_69 
REMARK   28  A    between atoms: CA_63  and  CB_65 
REMARK   29  A    between atoms: CA_63  and  C_64 
ROOT
ATOM      1  C   GLU B   4       9.423  89.950  68.170  1.00  0.00     0.241 C 
ATOM      2  O   GLU B   4       9.157  91.022  68.714  1.00  0.00    -0.271 OA
ATOM      3  H   THR B   5      10.515  88.942  66.834  1.00  0.23     0.163 HD
ATOM      4  N   THR B   5      10.353  89.825  67.228  1.00  7.70    -0.344 N 
ENDROOT
BRANCH   1   5
ATOM      5  CA  GLU B   4       8.679  88.674  68.553  1.00  0.00     0.177 C 
BRANCH   5   6
ATOM      6  N   GLU B   4       7.233  88.873  68.478  1.00  0.00    -0.346 N 
ATOM      7  H   GLU B   4       6.686  88.721  69.277  1.00  0.23     0.163 HD
ATOM      8  C   ALA B   3       6.648  89.232  67.342  1.00  0.00     0.240 C 
ATOM      9  O   ALA B   3       7.271  89.459  66.308  1.00  0.00    -0.271 OA
BRANCH   8  10
ATOM     10  CA  ALA B   3       5.152  89.431  67.379  1.00  0.00     0.172 C 
ATOM     11  CB  ALA B   3       4.516  88.929  68.686  1.00  0.00     0.042 C 
BRANCH  10  12
ATOM     12  N   ALA B   3       4.504  88.732  66.273  1.00  0.00    -0.346 N 
ATOM     13  H   ALA B   3       4.914  87.885  65.946  1.00  0.00     0.163 HD
ATOM     14  C   CYS B   2       3.378  89.170  65.675  1.00  0.00     0.241 C 
ATOM     15  O   CYS B   2       2.807  90.190  66.052  1.00  0.00    -0.271 OA
BRANCH  14  16
ATOM     16  CA  CYS B   2       2.865  88.357  64.509  1.00  0.00     0.185 C 
BRANCH  16  17
ATOM     17  N   CYS B   2       3.954  87.991  63.608  1.00  0.00    -0.345 N 
ATOM     18  C   LYS B   1       3.760  87.864  62.292  1.00  0.00     0.254 C 
ATOM     19  O   LYS B   1       2.645  87.998  61.777  1.00  0.00    -0.271 OA
ATOM     20  H   CYS B   2       4.851  87.833  63.978  1.00  0.00     0.163 HD
BRANCH  18  21
ATOM     21  CA  LYS B   1       4.975  87.499  61.470  1.00  0.00     0.350 C 
BRANCH  21  22
ATOM     22  CB  LYS B   1       4.836  86.069  60.880  1.00  0.00     0.048 C 
BRANCH  22  23
ATOM     23  CG  LYS B   1       5.154  85.994  59.366  1.00  0.00     0.004 C 
BRANCH  23  24
ATOM     24  CD  LYS B   1       6.557  85.482  59.027  1.00  0.00     0.027 C 
BRANCH  24  25
ATOM     25  CE  LYS B   1       6.872  85.804  57.560  1.00  0.00     0.229 C 
BRANCH  25  26
ATOM     26  NZ  LYS B   1       7.000  87.262  57.396  1.00  0.00    -0.079 N 
ATOM     27  HZ3 LYS B   1       7.983  87.447  57.256  1.00  0.00     0.274 HD
ATOM     28  HZ2 LYS B   1       6.648  87.763  58.218  1.00  0.00     0.274 HD
ATOM     29  HZ1 LYS B   1       6.438  87.588  56.600  1.00  0.00     0.274 HD
ENDBRANCH  25  26
ENDBRANCH  24  25
ENDBRANCH  23  24
ENDBRANCH  22  23
ENDBRANCH  21  22
BRANCH  21  30
ATOM     30  N   LYS B   1       6.192  87.578  62.272  1.00  0.00     0.312 N 
ATOM     31  H   LYS B   1       6.913  86.887  61.896  1.00  0.00     0.359 HD
ENDBRANCH  21  30
ENDBRANCH  18  21
ENDBRANCH  16  17
BRANCH  16  32
ATOM     32  CB  CYS B   2       2.148  87.070  64.959  1.00  0.00     0.105 C 
BRANCH  32  33
ATOM     33  SG  CYS B   2       0.432  87.418  65.409  1.00  0.00    -0.180 SA
ATOM     34  HG  CYS B   2      -0.081  86.267  64.981  1.00  0.00     0.101 HD
ENDBRANCH  32  33
ENDBRANCH  16  32
ENDBRANCH  14  16
ENDBRANCH  10  12
ENDBRANCH   8  10
ENDBRANCH   5   6
BRANCH   5  35
ATOM     35  CB  GLU B   4       9.112  87.529  67.636  1.00  0.00     0.045 C 
BRANCH  35  36
ATOM     36  CG  GLU B   4       9.315  86.213  68.368  1.00  0.00     0.116 C 
BRANCH  36  37
ATOM     37  CD  GLU B   4       8.069  85.347  68.374  1.00  0.00     0.172 C 
ATOM     38  OE2 GLU B   4       8.201  84.117  68.206  1.00  0.00    -0.648 OA
ATOM     39  OE1 GLU B   4       6.963  85.900  68.548  1.00  0.00    -0.648 OA
ENDBRANCH  36  37
ENDBRANCH  35  36
ENDBRANCH   5  35
ENDBRANCH   1   5
BRANCH   4  40
ATOM     40  CA  THR B   5      11.139  90.964  66.763  1.00  7.88     0.205 C 
BRANCH  40  41
ATOM     41  CB  THR B   5      12.562  90.522  66.417  1.00  4.05     0.146 C 
ATOM     42  CG2 THR B   5      13.616  91.530  66.821  1.00  3.72     0.042 C 
BRANCH  41  43
ATOM     43  OG1 THR B   5      12.874  89.296  67.055  1.00  7.31    -0.393 OA
ATOM     44  HG1 THR B   5      13.666  88.924  66.662  1.00  0.23     0.210 HD
ENDBRANCH  41  43
ENDBRANCH  40  41
BRANCH  40  45
ATOM     45  C   THR B   5      10.484  91.607  65.545  1.00  7.05     0.243 C 
ATOM     46  N   TRP B   6      10.361  92.930  65.572  1.00  0.00    -0.346 N 
ATOM     47  H   TRP B   6      10.688  93.425  66.353  1.00  0.23     0.163 HD
ATOM     48  O   THR B   5      10.095  90.919  64.602  1.00  6.06    -0.271 OA
BRANCH  46  49
ATOM     49  CA  TRP B   6       9.749  93.663  64.472  1.00  0.00     0.181 C 
BRANCH  49  50
ATOM     50  CB  TRP B   6      10.504  93.389  63.170  1.00  0.00     0.075 C 
BRANCH  50  51
ATOM     51  CG  TRP B   6      11.689  94.286  62.982  1.00  0.00    -0.028 A 
ATOM     52  CD2 TRP B   6      13.064  93.945  63.196  1.00  0.00    -0.002 A 
ATOM     53  CE2 TRP B   6      13.828  95.087  62.891  1.00  0.00     0.042 A 
ATOM     54  CE3 TRP B   6      13.721  92.786  63.616  1.00  0.00     0.014 A 
ATOM     55  CZ2 TRP B   6      15.217  95.101  62.993  1.00  0.00     0.030 A 
ATOM     56  NE1 TRP B   6      12.958  96.076  62.510  1.00  0.00    -0.365 N 
ATOM     57  CH2 TRP B   6      15.835  93.953  63.407  1.00  0.00     0.002 A 
ATOM     58  CZ3 TRP B   6      15.101  92.803  63.717  1.00  0.00     0.001 A 
ATOM     59  HE1 TRP B   6      13.210  96.984  62.240  1.00  0.23     0.165 HD
ATOM     60  CD1 TRP B   6      11.676  95.587  62.568  1.00  0.00     0.096 A 
ENDBRANCH  50  51
ENDBRANCH  49  50
BRANCH  49  61
ATOM     61  C   TRP B   6       8.279  93.286  64.317  1.00  0.00     0.241 C 
ATOM     62  N   VAL B   7       7.904  92.883  63.107  1.00  6.11    -0.344 N 
ATOM     63  H   VAL B   7       8.569  92.845  62.389  1.00  0.23     0.163 HD
ATOM     64  O   TRP B   6       7.503  93.363  65.270  1.00  0.00    -0.271 OA
BRANCH  62  65
ATOM     65  CA  VAL B   7       6.528  92.496  62.821  1.00  5.65     0.189 C 
BRANCH  65  66
ATOM     66  CB  VAL B   7       6.070  93.039  61.453  1.00  1.15     0.010 C 
ATOM     67  CG1 VAL B   7       4.887  93.982  61.621  1.00  4.96     0.012 C 
ATOM     68  CG2 VAL B   7       7.218  93.736  60.739  1.00  9.83     0.012 C 
ENDBRANCH  65  66
BRANCH  65  69
ATOM     69  C   VAL B   7       6.367  90.979  62.834  1.00  4.44     0.197 C 
ATOM     70  OXT VAL B   7       7.160  90.294  62.158  1.00  0.00    -0.646 OA
ATOM     71  O   VAL B   7       5.449  90.490  63.525  1.00  0.00    -0.646 OA
ENDBRANCH  65  69
ENDBRANCH  62  65
ENDBRANCH  49  61
ENDBRANCH  46  49
ENDBRANCH  40  45
ENDBRANCH   4  40
TORSDOF 29
ENDMDL
MODEL 4
REMARK VINA RESULT:      -5.9      2.713      4.599
REMARK  29 active torsions:
REMARK  status: ('A' for Active; 'I' for Inactive)
REMARK    1  A    between atoms: N_1  and  CA_2 
REMARK    2  A    between atoms: CA_2  and  CB_5 
REMARK    3  A    between atoms: CA_2  and  C_3 
REMARK       I    between atoms: C_3  and  N_14 
REMARK    4  A    between atoms: CB_5  and  CG_6 
REMARK    5  A    between atoms: CG_6  and  CD_7 
REMARK    6  A    between atoms: CD_7  and  CE_8 
REMARK    7  A    between atoms: CE_8  and  NZ_9 
REMARK    8  A    between atoms: N_14  and  CA_15 
REMARK    9  A    between atoms: CA_15  and  C_16 
REMARK   10  A    between atoms: CA_15  and  CB_18 
REMARK       I    between atoms: C_16  and  N_22 
REMARK   11  A    between atoms: CB_18  and  SG_19 
REMARK   12  A    between atoms: N_22  and  CA_23 
REMARK   13  A    between atoms: CA_23  and  C_24 
REMARK       I    between atoms: C_24  and  N_34 
REMARK   14  A    between atoms: CA_28  and  N_34 
REMARK   15  A    between atoms: CA_28  and  CB_30 
REMARK   16  A    between atoms: CA_28  and  C_29 
REMARK       I    between atoms: C_29  and  N_44 
REMARK   17  A    between atoms: CB_30  and  CG_31 
REMARK   18  A    between atoms: CG_31  and  CD_32 
REMARK   19  A    between atoms: CA_38  and  N_44 
REMARK   20  A    between atoms: CA_38  and  CB_40 
REMARK   21  A    between atoms: CA_38  and  C_39 
REMARK       I    between atoms: C_39  and  N_60 
REMARK   22  A    between atoms: CB_40  and  OG1_46 
REMARK   23  A    between atoms: CA_47  and  CB_49 
REMARK   24  A    between atoms: CA_47  and  N_60 
REMARK   25  A    between atoms: CA_47  and  C_48 
REMARK       I    between atoms: C_48  and  N_69 
REMARK   26  A    between atoms: CB_49  and  CG_50 
REMARK   27  A    between atoms: CA_63  and  N_69 
REMARK   28  A    between atoms: CA_63  and  CB_65 
REMARK   29  A    between atoms: CA_63  and  C_64 
ROOT
ATOM      1  C   GLU B   4       9.435  89.981  66.815  1.00  0.00     0.241 C 
ATOM      2  O   GLU B   4       9.119  90.958  67.494  1.00  0.00    -0.271 OA
ATOM      3  H   THR B   5      10.729  89.128  65.553  1.00  0.23     0.163 HD
ATOM      4  N   THR B   5      10.537  89.938  66.072  1.00  7.70    -0.344 N 
ENDROOT
BRANCH   1   5
ATOM      5  CA  GLU B   4       8.554  88.735  66.784  1.00  0.00     0.177 C 
BRANCH   5   6
ATOM      6  N   GLU B   4       7.171  89.066  67.121  1.00  0.00    -0.346 N 
ATOM      7  H   GLU B   4       6.796  89.919  66.819  1.00  0.23     0.163 HD
ATOM      8  C   ALA B   3       6.427  88.243  67.850  1.00  0.00     0.240 C 
ATOM      9  O   ALA B   3       6.825  87.151  68.245  1.00  0.00    -0.271 OA
BRANCH   8  10
ATOM     10  CA  ALA B   3       5.005  88.672  68.123  1.00  0.00     0.172 C 
ATOM     11  CB  ALA B   3       4.608  88.510  69.600  1.00  0.00     0.042 C 
BRANCH  10  12
ATOM     12  N   ALA B   3       4.062  87.896  67.323  1.00  0.00    -0.346 N 
ATOM     13  H   ALA B   3       4.323  86.975  67.048  1.00  0.00     0.163 HD
ATOM     14  C   CYS B   2       2.857  88.361  66.938  1.00  0.00     0.241 C 
ATOM     15  O   CYS B   2       2.464  89.476  67.270  1.00  0.00    -0.271 OA
BRANCH  14  16
ATOM     16  CA  CYS B   2       2.022  87.451  66.066  1.00  0.00     0.185 C 
BRANCH  16  17
ATOM     17  N   CYS B   2       2.514  87.451  64.691  1.00  0.00    -0.345 N 
ATOM     18  C   LYS B   1       1.976  88.240  63.756  1.00  0.00     0.254 C 
ATOM     19  O   LYS B   1       1.007  88.970  63.991  1.00  0.00    -0.271 OA
ATOM     20  H   CYS B   2       3.257  86.856  64.447  1.00  0.00     0.163 HD
BRANCH  18  21
ATOM     21  CA  LYS B   1       2.590  88.157  62.378  1.00  0.00     0.350 C 
BRANCH  21  22
ATOM     22  CB  LYS B   1       4.129  87.967  62.466  1.00  0.00     0.048 C 
BRANCH  22  23
ATOM     23  CG  LYS B   1       4.665  86.845  61.542  1.00  0.00     0.004 C 
BRANCH  23  24
ATOM     24  CD  LYS B   1       3.591  86.097  60.748  1.00  0.00     0.027 C 
BRANCH  24  25
ATOM     25  CE  LYS B   1       3.923  86.173  59.252  1.00  0.00     0.229 C 
BRANCH  25  26
ATOM     26  NZ  LYS B   1       4.136  87.579  58.868  1.00  0.00    -0.079 N 
ATOM     27  HZ3 LYS B   1       4.941  87.898  59.390  1.00  0.00     0.274 HD
ATOM     28  HZ2 LYS B   1       3.314  88.153  59.080  1.00  0.00     0.274 HD
ATOM     29  HZ1 LYS B   1       4.288  87.660  57.856  1.00  0.00     0.274 HD
ENDBRANCH  25  26
ENDBRANCH  24  25
ENDBRANCH  23  24
ENDBRANCH  22  23
ENDBRANCH  21  22
BRANCH  21  30
ATOM     30  N   LYS B   1       2.291  89.355  61.599  1.00  0.00     0.312 N 
ATOM     31  H   LYS B   1       3.099  90.047  61.684  1.00  0.00     0.359 HD
ENDBRANCH  21  30
ENDBRANCH  18  21
ENDBRANCH  16  17
BRANCH  16  32
ATOM     32  CB  CYS B   2       2.003  85.999  66.580  1.00  0.00     0.105 C 
BRANCH  32  33
ATOM     33  SG  CYS B   2       1.806  84.838  65.208  1.00  0.00    -0.180 SA
ATOM     34  HG  CYS B   2       3.093  84.758  64.882  1.00  0.00     0.101 HD
ENDBRANCH  32  33
ENDBRANCH  16  32
ENDBRANCH  14  16
ENDBRANCH  10  12
ENDBRANCH   8  10
ENDBRANCH   5   6
BRANCH   5  35
ATOM     35  CB  GLU B   4       8.628  88.085  65.401  1.00  0.00     0.045 C 
BRANCH  35  36
ATOM     36  CG  GLU B   4       7.527  88.544  64.459  1.00  0.00     0.116 C 
BRANCH  36  37
ATOM     37  CD  GLU B   4       8.066  89.216  63.210  1.00  0.00     0.172 C 
ATOM     38  OE2 GLU B   4       7.471  89.025  62.129  1.00  0.00    -0.648 OA
ATOM     39  OE1 GLU B   4       9.083  89.933  63.314  1.00  0.00    -0.648 OA
ENDBRANCH  36  37
ENDBRANCH  35  36
ENDBRANCH   5  35
ENDBRANCH   1   5
BRANCH   4  40
ATOM     40  CA  THR B   5      11.468  91.060  66.006  1.00  7.88     0.205 C 
BRANCH  40  41
ATOM     41  CB  THR B   5      12.899  90.579  66.249  1.00  4.05     0.146 C 
ATOM     42  CG2 THR B   5      13.771  91.613  66.927  1.00  3.72     0.042 C 
BRANCH  41  43
ATOM     43  OG1 THR B   5      12.905  89.416  67.058  1.00  7.31    -0.393 OA
ATOM     44  HG1 THR B   5      13.728  89.373  67.550  1.00  0.23     0.210 HD
ENDBRANCH  41  43
ENDBRANCH  40  41
BRANCH  40  45
ATOM     45  C   THR B   5      11.376  91.755  64.652  1.00  7.05     0.243 C 
ATOM     46  N   TRP B   6      10.299  92.506  64.447  1.00  0.00    -0.346 N 
ATOM     47  H   TRP B   6       9.626  92.581  65.156  1.00  0.23     0.163 HD
ATOM     48  O   THR B   5      12.261  91.612  63.809  1.00  6.06    -0.271 OA
BRANCH  46  49
ATOM     49  CA  TRP B   6      10.091  93.219  63.193  1.00  0.00     0.181 C 
BRANCH  49  50
ATOM     50  CB  TRP B   6       8.597  93.432  62.949  1.00  0.00     0.075 C 
BRANCH  50  51
ATOM     51  CG  TRP B   6       7.756  93.099  64.143  1.00  0.00    -0.028 A 
ATOM     52  CD2 TRP B   6       6.477  92.453  64.136  1.00  0.00    -0.002 A 
ATOM     53  CE2 TRP B   6       6.062  92.338  65.476  1.00  0.00     0.042 A 
ATOM     54  CE3 TRP B   6       5.644  91.963  63.127  1.00  0.00     0.014 A 
ATOM     55  CZ2 TRP B   6       4.850  91.751  65.831  1.00  0.00     0.030 A 
ATOM     56  NE1 TRP B   6       7.042  92.888  66.260  1.00  0.00    -0.365 N 
ATOM     57  CH2 TRP B   6       4.053  91.279  64.824  1.00  0.00     0.002 A 
ATOM     58  CZ3 TRP B   6       4.440  91.380  63.483  1.00  0.00     0.001 A 
ATOM     59  HE1 TRP B   6       7.024  92.947  67.239  1.00  0.23     0.165 HD
ATOM     60  CD1 TRP B   6       8.056  93.343  65.451  1.00  0.00     0.096 A 
ENDBRANCH  50  51
ENDBRANCH  49  50
BRANCH  49  61
ATOM     61  C   TRP B   6      10.820  94.559  63.201  1.00  0.00     0.241 C 
ATOM     62  N   VAL B   7      11.866  94.660  62.387  1.00  6.11    -0.344 N 
ATOM     63  H   VAL B   7      12.115  93.891  61.833  1.00  0.23     0.163 HD
ATOM     64  O   TRP B   6      10.444  95.477  63.930  1.00  0.00    -0.271 OA
BRANCH  62  65
ATOM     65  CA  VAL B   7      12.652  95.883  62.298  1.00  5.65     0.189 C 
BRANCH  65  66
ATOM     66  CB  VAL B   7      14.151  95.600  62.518  1.00  1.15     0.010 C 
ATOM     67  CG1 VAL B   7      14.648  96.296  63.777  1.00  4.96     0.012 C 
ATOM     68  CG2 VAL B   7      14.410  94.102  62.592  1.00  9.83     0.012 C 
ENDBRANCH  65  66
BRANCH  65  69
ATOM     69  C   VAL B   7      12.466  96.562  60.944  1.00  4.44     0.197 C 
ATOM     70  OXT VAL B   7      13.397  96.493  60.115  1.00  0.00    -0.646 OA
ATOM     71  O   VAL B   7      11.389  97.155  60.725  1.00  0.00    -0.646 OA
ENDBRANCH  65  69
ENDBRANCH  62  65
ENDBRANCH  49  61
ENDBRANCH  46  49
ENDBRANCH  40  45
ENDBRANCH   4  40
TORSDOF 29
ENDMDL
MODEL 5
REMARK VINA RESULT:      -5.5      2.433      3.605
REMARK  29 active torsions:
REMARK  status: ('A' for Active; 'I' for Inactive)
REMARK    1  A    between atoms: N_1  and  CA_2 
REMARK    2  A    between atoms: CA_2  and  CB_5 
REMARK    3  A    between atoms: CA_2  and  C_3 
REMARK       I    between atoms: C_3  and  N_14 
REMARK    4  A    between atoms: CB_5  and  CG_6 
REMARK    5  A    between atoms: CG_6  and  CD_7 
REMARK    6  A    between atoms: CD_7  and  CE_8 
REMARK    7  A    between atoms: CE_8  and  NZ_9 
REMARK    8  A    between atoms: N_14  and  CA_15 
REMARK    9  A    between atoms: CA_15  and  C_16 
REMARK   10  A    between atoms: CA_15  and  CB_18 
REMARK       I    between atoms: C_16  and  N_22 
REMARK   11  A    between atoms: CB_18  and  SG_19 
REMARK   12  A    between atoms: N_22  and  CA_23 
REMARK   13  A    between atoms: CA_23  and  C_24 
REMARK       I    between atoms: C_24  and  N_34 
REMARK   14  A    between atoms: CA_28  and  N_34 
REMARK   15  A    between atoms: CA_28  and  CB_30 
REMARK   16  A    between atoms: CA_28  and  C_29 
REMARK       I    between atoms: C_29  and  N_44 
REMARK   17  A    between atoms: CB_30  and  CG_31 
REMARK   18  A    between atoms: CG_31  and  CD_32 
REMARK   19  A    between atoms: CA_38  and  N_44 
REMARK   20  A    between atoms: CA_38  and  CB_40 
REMARK   21  A    between atoms: CA_38  and  C_39 
REMARK       I    between atoms: C_39  and  N_60 
REMARK   22  A    between atoms: CB_40  and  OG1_46 
REMARK   23  A    between atoms: CA_47  and  CB_49 
REMARK   24  A    between atoms: CA_47  and  N_60 
REMARK   25  A    between atoms: CA_47  and  C_48 
REMARK       I    between atoms: C_48  and  N_69 
REMARK   26  A    between atoms: CB_49  and  CG_50 
REMARK   27  A    between atoms: CA_63  and  N_69 
REMARK   28  A    between atoms: CA_63  and  CB_65 
REMARK   29  A    between atoms: CA_63  and  C_64 
ROOT
ATOM      1  C   GLU B   4       9.397  90.067  67.130  1.00  0.00     0.241 C 
ATOM      2  O   GLU B   4       9.232  91.015  67.898  1.00  0.00    -0.271 OA
ATOM      3  H   THR B   5      10.490  89.208  65.694  1.00  0.23     0.163 HD
ATOM      4  N   THR B   5      10.417  89.990  66.280  1.00  7.70    -0.344 N 
ENDROOT
BRANCH   1   5
ATOM      5  CA  GLU B   4       8.414  88.900  67.107  1.00  0.00     0.177 C 
BRANCH   5   6
ATOM      6  N   GLU B   4       7.089  89.344  66.679  1.00  0.00    -0.346 N 
ATOM      7  H   GLU B   4       7.007  89.904  65.880  1.00  0.23     0.163 HD
ATOM      8  C   ALA B   3       6.002  89.021  67.368  1.00  0.00     0.240 C 
ATOM      9  O   ALA B   3       6.027  88.306  68.366  1.00  0.00    -0.271 OA
BRANCH   8  10
ATOM     10  CA  ALA B   3       4.681  89.513  66.827  1.00  0.00     0.172 C 
ATOM     11  CB  ALA B   3       3.480  89.035  67.661  1.00  0.00     0.042 C 
BRANCH  10  12
ATOM     12  N   ALA B   3       4.476  89.060  65.455  1.00  0.00    -0.346 N 
ATOM     13  H   ALA B   3       4.669  88.106  65.239  1.00  0.00     0.163 HD
ATOM     14  C   CYS B   2       4.038  89.862  64.465  1.00  0.00     0.241 C 
ATOM     15  O   CYS B   2       3.753  91.039  64.672  1.00  0.00    -0.271 OA
BRANCH  14  16
ATOM     16  CA  CYS B   2       3.931  89.250  63.087  1.00  0.00     0.185 C 
BRANCH  16  17
ATOM     17  N   CYS B   2       5.167  89.442  62.333  1.00  0.00    -0.345 N 
ATOM     18  C   LYS B   1       5.162  89.978  61.109  1.00  0.00     0.254 C 
ATOM     19  O   LYS B   1       4.115  90.290  60.533  1.00  0.00    -0.271 OA
ATOM     20  H   CYS B   2       6.022  89.170  62.735  1.00  0.00     0.163 HD
BRANCH  18  21
ATOM     21  CA  LYS B   1       6.510  90.139  60.445  1.00  0.00     0.350 C 
BRANCH  21  22
ATOM     22  CB  LYS B   1       6.565  89.358  59.104  1.00  0.00     0.048 C 
BRANCH  22  23
ATOM     23  CG  LYS B   1       6.543  87.820  59.286  1.00  0.00     0.004 C 
BRANCH  23  24
ATOM     24  CD  LYS B   1       7.058  87.022  58.085  1.00  0.00     0.027 C 
BRANCH  24  25
ATOM     25  CE  LYS B   1       6.360  85.655  58.048  1.00  0.00     0.229 C 
BRANCH  25  26
ATOM     26  NZ  LYS B   1       4.900  85.850  58.052  1.00  0.00    -0.079 N 
ATOM     27  HZ3 LYS B   1       4.712  86.576  58.729  1.00  0.00     0.274 HD
ATOM     28  HZ2 LYS B   1       4.408  84.985  58.298  1.00  0.00     0.274 HD
ATOM     29  HZ1 LYS B   1       4.567  86.112  57.116  1.00  0.00     0.274 HD
ENDBRANCH  25  26
ENDBRANCH  24  25
ENDBRANCH  23  24
ENDBRANCH  22  23
ENDBRANCH  21  22
BRANCH  21  30
ATOM     30  N   LYS B   1       7.583  89.676  61.321  1.00  0.00     0.312 N 
ATOM     31  H   LYS B   1       8.108  90.517  61.718  1.00  0.00     0.359 HD
ENDBRANCH  21  30
ENDBRANCH  18  21
ENDBRANCH  16  17
BRANCH  16  32
ATOM     32  CB  CYS B   2       3.616  87.742  63.136  1.00  0.00     0.105 C 
BRANCH  32  33
ATOM     33  SG  CYS B   2       2.341  87.315  61.928  1.00  0.00    -0.180 SA
ATOM     34  HG  CYS B   2       1.762  88.512  61.879  1.00  0.00     0.101 HD
ENDBRANCH  32  33
ENDBRANCH  16  32
ENDBRANCH  14  16
ENDBRANCH  10  12
ENDBRANCH   8  10
ENDBRANCH   5   6
BRANCH   5  35
ATOM     35  CB  GLU B   4       8.938  87.802  66.179  1.00  0.00     0.045 C 
BRANCH  35  36
ATOM     36  CG  GLU B   4       8.729  86.400  66.725  1.00  0.00     0.116 C 
BRANCH  36  37
ATOM     37  CD  GLU B   4       8.973  86.310  68.220  1.00  0.00     0.172 C 
ATOM     38  OE2 GLU B   4      10.014  86.821  68.683  1.00  0.00    -0.648 OA
ATOM     39  OE1 GLU B   4       8.123  85.728  68.926  1.00  0.00    -0.648 OA
ENDBRANCH  36  37
ENDBRANCH  35  36
ENDBRANCH   5  35
ENDBRANCH   1   5
BRANCH   4  40
ATOM     40  CA  THR B   5      11.431  91.038  66.194  1.00  7.88     0.205 C 
BRANCH  40  41
ATOM     41  CB  THR B   5      12.832  90.428  66.264  1.00  4.05     0.146 C 
ATOM     42  CG2 THR B   5      13.866  91.372  66.839  1.00  3.72     0.042 C 
BRANCH  41  43
ATOM     43  OG1 THR B   5      12.829  89.257  67.062  1.00  7.31    -0.393 OA
ATOM     44  HG1 THR B   5      11.926  89.034  67.298  1.00  0.23     0.210 HD
ENDBRANCH  41  43
ENDBRANCH  40  41
BRANCH  40  45
ATOM     45  C   THR B   5      11.273  91.832  64.902  1.00  7.05     0.243 C 
ATOM     46  N   TRP B   6      10.111  92.453  64.731  1.00  0.00    -0.346 N 
ATOM     47  H   TRP B   6       9.421  92.377  65.423  1.00  0.23     0.163 HD
ATOM     48  O   THR B   5      12.184  91.880  64.076  1.00  6.06    -0.271 OA
BRANCH  46  49
ATOM     49  CA  TRP B   6       9.834  93.241  63.537  1.00  0.00     0.181 C 
BRANCH  49  50
ATOM     50  CB  TRP B   6       8.345  93.579  63.460  1.00  0.00     0.075 C 
BRANCH  50  51
ATOM     51  CG  TRP B   6       7.841  93.685  62.053  1.00  0.00    -0.028 A 
ATOM     52  CD2 TRP B   6       6.472  93.674  61.630  1.00  0.00    -0.002 A 
ATOM     53  CE2 TRP B   6       6.469  93.805  60.228  1.00  0.00     0.042 A 
ATOM     54  CE3 TRP B   6       5.251  93.566  62.301  1.00  0.00     0.014 A 
ATOM     55  CZ2 TRP B   6       5.290  93.831  59.487  1.00  0.00     0.030 A 
ATOM     56  NE1 TRP B   6       7.774  93.891  59.819  1.00  0.00    -0.365 N 
ATOM     57  CH2 TRP B   6       4.109  93.722  60.168  1.00  0.00     0.002 A 
ATOM     58  CZ3 TRP B   6       4.082  93.592  61.562  1.00  0.00     0.001 A 
ATOM     59  HE1 TRP B   6       8.075  93.988  58.891  1.00  0.23     0.165 HD
ATOM     60  CD1 TRP B   6       8.591  93.818  60.921  1.00  0.00     0.096 A 
ENDBRANCH  50  51
ENDBRANCH  49  50
BRANCH  49  61
ATOM     61  C   TRP B   6      10.665  94.520  63.523  1.00  0.00     0.241 C 
ATOM     62  N   VAL B   7      11.509  94.658  62.505  1.00  6.11    -0.344 N 
ATOM     63  H   VAL B   7      11.558  93.953  61.827  1.00  0.23     0.163 HD
ATOM     64  O   TRP B   6      10.546  95.359  64.416  1.00  0.00    -0.271 OA
BRANCH  62  65
ATOM     65  CA  VAL B   7      12.365  95.830  62.373  1.00  5.65     0.189 C 
BRANCH  65  66
ATOM     66  CB  VAL B   7      13.846  95.468  62.596  1.00  1.15     0.010 C 
ATOM     67  CG1 VAL B   7      14.372  96.125  63.864  1.00  4.96     0.012 C 
ATOM     68  CG2 VAL B   7      14.027  93.958  62.657  1.00  9.83     0.012 C 
ENDBRANCH  65  66
BRANCH  65  69
ATOM     69  C   VAL B   7      12.210  96.473  60.998  1.00  4.44     0.197 C 
ATOM     70  OXT VAL B   7      13.120  96.306  60.161  1.00  0.00    -0.646 OA
ATOM     71  O   VAL B   7      11.177  97.138  60.771  1.00  0.00    -0.646 OA
ENDBRANCH  65  69
ENDBRANCH  62  65
ENDBRANCH  49  61
ENDBRANCH  46  49
ENDBRANCH  40  45
ENDBRANCH   4  40
TORSDOF 29
ENDMDL
MODEL 6
REMARK VINA RESULT:      -5.5      2.757      4.923
REMARK  29 active torsions:
REMARK  status: ('A' for Active; 'I' for Inactive)
REMARK    1  A    between atoms: N_1  and  CA_2 
REMARK    2  A    between atoms: CA_2  and  CB_5 
REMARK    3  A    between atoms: CA_2  and  C_3 
REMARK       I    between atoms: C_3  and  N_14 
REMARK    4  A    between atoms: CB_5  and  CG_6 
REMARK    5  A    between atoms: CG_6  and  CD_7 
REMARK    6  A    between atoms: CD_7  and  CE_8 
REMARK    7  A    between atoms: CE_8  and  NZ_9 
REMARK    8  A    between atoms: N_14  and  CA_15 
REMARK    9  A    between atoms: CA_15  and  C_16 
REMARK   10  A    between atoms: CA_15  and  CB_18 
REMARK       I    between atoms: C_16  and  N_22 
REMARK   11  A    between atoms: CB_18  and  SG_19 
REMARK   12  A    between atoms: N_22  and  CA_23 
REMARK   13  A    between atoms: CA_23  and  C_24 
REMARK       I    between atoms: C_24  and  N_34 
REMARK   14  A    between atoms: CA_28  and  N_34 
REMARK   15  A    between atoms: CA_28  and  CB_30 
REMARK   16  A    between atoms: CA_28  and  C_29 
REMARK       I    between atoms: C_29  and  N_44 
REMARK   17  A    between atoms: CB_30  and  CG_31 
REMARK   18  A    between atoms: CG_31  and  CD_32 
REMARK   19  A    between atoms: CA_38  and  N_44 
REMARK   20  A    between atoms: CA_38  and  CB_40 
REMARK   21  A    between atoms: CA_38  and  C_39 
REMARK       I    between atoms: C_39  and  N_60 
REMARK   22  A    between atoms: CB_40  and  OG1_46 
REMARK   23  A    between atoms: CA_47  and  CB_49 
REMARK   24  A    between atoms: CA_47  and  N_60 
REMARK   25  A    between atoms: CA_47  and  C_48 
REMARK       I    between atoms: C_48  and  N_69 
REMARK   26  A    between atoms: CB_49  and  CG_50 
REMARK   27  A    between atoms: CA_63  and  N_69 
REMARK   28  A    between atoms: CA_63  and  CB_65 
REMARK   29  A    between atoms: CA_63  and  C_64 
ROOT
ATOM      1  C   GLU B   4       9.726  89.750  66.652  1.00  0.00     0.241 C 
ATOM      2  O   GLU B   4       9.151  90.733  67.120  1.00  0.00    -0.271 OA
ATOM      3  H   THR B   5      11.348  88.985  65.772  1.00  0.23     0.163 HD
ATOM      4  N   THR B   5      10.948  89.805  66.130  1.00  7.70    -0.344 N 
ENDROOT
BRANCH   1   5
ATOM      5  CA  GLU B   4       9.050  88.382  66.640  1.00  0.00     0.177 C 
BRANCH   5   6
ATOM      6  N   GLU B   4       7.781  88.422  67.363  1.00  0.00    -0.346 N 
ATOM      7  H   GLU B   4       7.279  89.263  67.404  1.00  0.23     0.163 HD
ATOM      8  C   ALA B   3       7.310  87.347  67.984  1.00  0.00     0.240 C 
ATOM      9  O   ALA B   3       7.874  86.256  67.957  1.00  0.00    -0.271 OA
BRANCH   8  10
ATOM     10  CA  ALA B   3       5.980  87.491  68.683  1.00  0.00     0.172 C 
ATOM     11  CB  ALA B   3       5.358  86.137  69.064  1.00  0.00     0.042 C 
BRANCH  10  12
ATOM     12  N   ALA B   3       5.020  88.199  67.841  1.00  0.00    -0.346 N 
ATOM     13  H   ALA B   3       4.929  87.916  66.889  1.00  0.00     0.163 HD
ATOM     14  C   CYS B   2       4.250  89.212  68.283  1.00  0.00     0.241 C 
ATOM     15  O   CYS B   2       4.293  89.587  69.451  1.00  0.00    -0.271 OA
BRANCH  14  16
ATOM     16  CA  CYS B   2       3.346  89.875  67.269  1.00  0.00     0.185 C 
BRANCH  16  17
ATOM     17  N   CYS B   2       3.032  88.961  66.174  1.00  0.00    -0.345 N 
ATOM     18  C   LYS B   1       2.774  89.409  64.941  1.00  0.00     0.254 C 
ATOM     19  O   LYS B   1       2.735  90.616  64.676  1.00  0.00    -0.271 OA
ATOM     20  H   CYS B   2       3.010  87.994  66.346  1.00  0.00     0.163 HD
BRANCH  18  21
ATOM     21  CA  LYS B   1       2.482  88.358  63.896  1.00  0.00     0.350 C 
BRANCH  21  22
ATOM     22  CB  LYS B   1       1.349  88.825  62.941  1.00  0.00     0.048 C 
BRANCH  22  23
ATOM     23  CG  LYS B   1       1.797  88.938  61.463  1.00  0.00     0.004 C 
BRANCH  23  24
ATOM     24  CD  LYS B   1       2.216  87.616  60.814  1.00  0.00     0.027 C 
BRANCH  24  25
ATOM     25  CE  LYS B   1       3.690  87.703  60.394  1.00  0.00     0.229 C 
BRANCH  25  26
ATOM     26  NZ  LYS B   1       4.495  86.809  61.244  1.00  0.00    -0.079 N 
ATOM     27  HZ3 LYS B   1       4.425  87.172  62.184  1.00  0.00     0.274 HD
ATOM     28  HZ2 LYS B   1       5.472  86.780  60.936  1.00  0.00     0.274 HD
ATOM     29  HZ1 LYS B   1       4.149  85.844  61.185  1.00  0.00     0.274 HD
ENDBRANCH  25  26
ENDBRANCH  24  25
ENDBRANCH  23  24
ENDBRANCH  22  23
ENDBRANCH  21  22
BRANCH  21  30
ATOM     30  N   LYS B   1       2.103  87.093  64.518  1.00  0.00     0.312 N 
ATOM     31  H   LYS B   1       2.849  86.805  65.226  1.00  0.00     0.359 HD
ENDBRANCH  21  30
ENDBRANCH  18  21
ENDBRANCH  16  17
BRANCH  16  32
ATOM     32  CB  CYS B   2       2.025  90.367  67.890  1.00  0.00     0.105 C 
BRANCH  32  33
ATOM     33  SG  CYS B   2       0.916  88.978  68.220  1.00  0.00    -0.180 SA
ATOM     34  HG  CYS B   2       0.811  89.168  69.533  1.00  0.00     0.101 HD
ENDBRANCH  32  33
ENDBRANCH  16  32
ENDBRANCH  14  16
ENDBRANCH  10  12
ENDBRANCH   8  10
ENDBRANCH   5   6
BRANCH   5  35
ATOM     35  CB  GLU B   4       8.830  87.928  65.196  1.00  0.00     0.045 C 
BRANCH  35  36
ATOM     36  CG  GLU B   4       8.188  88.991  64.319  1.00  0.00     0.116 C 
BRANCH  36  37
ATOM     37  CD  GLU B   4       6.694  88.788  64.152  1.00  0.00     0.172 C 
ATOM     38  OE2 GLU B   4       6.280  88.278  63.090  1.00  0.00    -0.648 OA
ATOM     39  OE1 GLU B   4       5.940  89.140  65.082  1.00  0.00    -0.648 OA
ENDBRANCH  36  37
ENDBRANCH  35  36
ENDBRANCH   5  35
ENDBRANCH   1   5
BRANCH   4  40
ATOM     40  CA  THR B   5      11.708  91.049  66.073  1.00  7.88     0.205 C 
BRANCH  40  41
ATOM     41  CB  THR B   5      13.205  90.763  66.204  1.00  4.05     0.146 C 
ATOM     42  CG2 THR B   5      13.918  91.724  67.130  1.00  3.72     0.042 C 
BRANCH  41  43
ATOM     43  OG1 THR B   5      13.423  89.453  66.696  1.00  7.31    -0.393 OA
ATOM     44  HG1 THR B   5      13.194  89.418  67.627  1.00  0.23     0.210 HD
ENDBRANCH  41  43
ENDBRANCH  40  41
BRANCH  40  45
ATOM     45  C   THR B   5      11.432  91.789  64.768  1.00  7.05     0.243 C 
ATOM     46  N   TRP B   6      10.327  92.524  64.731  1.00  0.00    -0.346 N 
ATOM     47  H   TRP B   6       9.749  92.561  65.522  1.00  0.23     0.163 HD
ATOM     48  O   THR B   5      12.204  91.692  63.814  1.00  6.06    -0.271 OA
BRANCH  46  49
ATOM     49  CA  TRP B   6       9.949  93.275  63.541  1.00  0.00     0.181 C 
BRANCH  49  50
ATOM     50  CB  TRP B   6       8.442  93.536  63.537  1.00  0.00     0.075 C 
BRANCH  50  51
ATOM     51  CG  TRP B   6       7.820  93.348  62.187  1.00  0.00    -0.028 A 
ATOM     52  CD2 TRP B   6       6.635  92.601  61.886  1.00  0.00    -0.002 A 
ATOM     53  CE2 TRP B   6       6.419  92.703  60.499  1.00  0.00     0.042 A 
ATOM     54  CE3 TRP B   6       5.738  91.855  62.655  1.00  0.00     0.014 A 
ATOM     55  CZ2 TRP B   6       5.342  92.088  59.866  1.00  0.00     0.030 A 
ATOM     56  NE1 TRP B   6       7.426  93.477  59.981  1.00  0.00    -0.365 N 
ATOM     57  CH2 TRP B   6       4.479  91.364  60.642  1.00  0.00     0.002 A 
ATOM     58  CZ3 TRP B   6       4.668  91.245  62.024  1.00  0.00     0.001 A 
ATOM     59  HE1 TRP B   6       7.532  93.718  59.036  1.00  0.23     0.165 HD
ATOM     60  CD1 TRP B   6       8.262  93.860  61.002  1.00  0.00     0.096 A 
ENDBRANCH  50  51
ENDBRANCH  49  50
BRANCH  49  61
ATOM     61  C   TRP B   6      10.711  94.594  63.464  1.00  0.00     0.241 C 
ATOM     62  N   VAL B   7      11.670  94.662  62.545  1.00  6.11    -0.344 N 
ATOM     63  H   VAL B   7      11.839  93.885  61.974  1.00  0.23     0.163 HD
ATOM     64  O   TRP B   6      10.438  95.526  64.222  1.00  0.00    -0.271 OA
BRANCH  62  65
ATOM     65  CA  VAL B   7      12.476  95.863  62.368  1.00  5.65     0.189 C 
BRANCH  65  66
ATOM     66  CB  VAL B   7      13.974  95.563  62.569  1.00  1.15     0.010 C 
ATOM     67  CG1 VAL B   7      14.498  96.265  63.814  1.00  4.96     0.012 C 
ATOM     68  CG2 VAL B   7      14.216  94.063  62.653  1.00  9.83     0.012 C 
ENDBRANCH  65  66
BRANCH  65  69
ATOM     69  C   VAL B   7      12.269  96.466  60.982  1.00  4.44     0.197 C 
ATOM     70  OXT VAL B   7      11.212  97.090  60.760  1.00  0.00    -0.646 OA
ATOM     71  O   VAL B   7      13.170  96.309  60.131  1.00  0.00    -0.646 OA
ENDBRANCH  65  69
ENDBRANCH  62  65
ENDBRANCH  49  61
ENDBRANCH  46  49
ENDBRANCH  40  45
ENDBRANCH   4  40
TORSDOF 29
ENDMDL
MODEL 7
REMARK VINA RESULT:      -4.7      4.051      7.040
REMARK  29 active torsions:
REMARK  status: ('A' for Active; 'I' for Inactive)
REMARK    1  A    between atoms: N_1  and  CA_2 
REMARK    2  A    between atoms: CA_2  and  CB_5 
REMARK    3  A    between atoms: CA_2  and  C_3 
REMARK       I    between atoms: C_3  and  N_14 
REMARK    4  A    between atoms: CB_5  and  CG_6 
REMARK    5  A    between atoms: CG_6  and  CD_7 
REMARK    6  A    between atoms: CD_7  and  CE_8 
REMARK    7  A    between atoms: CE_8  and  NZ_9 
REMARK    8  A    between atoms: N_14  and  CA_15 
REMARK    9  A    between atoms: CA_15  and  C_16 
REMARK   10  A    between atoms: CA_15  and  CB_18 
REMARK       I    between atoms: C_16  and  N_22 
REMARK   11  A    between atoms: CB_18  and  SG_19 
REMARK   12  A    between atoms: N_22  and  CA_23 
REMARK   13  A    between atoms: CA_23  and  C_24 
REMARK       I    between atoms: C_24  and  N_34 
REMARK   14  A    between atoms: CA_28  and  N_34 
REMARK   15  A    between atoms: CA_28  and  CB_30 
REMARK   16  A    between atoms: CA_28  and  C_29 
REMARK       I    between atoms: C_29  and  N_44 
REMARK   17  A    between atoms: CB_30  and  CG_31 
REMARK   18  A    between atoms: CG_31  and  CD_32 
REMARK   19  A    between atoms: CA_38  and  N_44 
REMARK   20  A    between atoms: CA_38  and  CB_40 
REMARK   21  A    between atoms: CA_38  and  C_39 
REMARK       I    between atoms: C_39  and  N_60 
REMARK   22  A    between atoms: CB_40  and  OG1_46 
REMARK   23  A    between atoms: CA_47  and  CB_49 
REMARK   24  A    between atoms: CA_47  and  N_60 
REMARK   25  A    between atoms: CA_47  and  C_48 
REMARK       I    between atoms: C_48  and  N_69 
REMARK   26  A    between atoms: CB_49  and  CG_50 
REMARK   27  A    between atoms: CA_63  and  N_69 
REMARK   28  A    between atoms: CA_63  and  CB_65 
REMARK   29  A    between atoms: CA_63  and  C_64 
ROOT
ATOM      1  C   GLU B   4      10.455  91.111  65.558  1.00  0.00     0.241 C 
ATOM      2  O   GLU B   4      11.066  91.197  66.624  1.00  0.00    -0.271 OA
ATOM      3  H   THR B   5      10.330  91.588  63.622  1.00  0.23     0.163 HD
ATOM      4  N   THR B   5      10.865  91.695  64.437  1.00  7.70    -0.344 N 
ENDROOT
BRANCH   1   5
ATOM      5  CA  GLU B   4       9.158  90.312  65.465  1.00  0.00     0.177 C 
BRANCH   5   6
ATOM      6  N   GLU B   4       8.166  91.022  64.660  1.00  0.00    -0.346 N 
ATOM      7  H   GLU B   4       8.270  91.049  63.686  1.00  0.23     0.163 HD
ATOM      8  C   ALA B   3       7.143  91.649  65.227  1.00  0.00     0.240 C 
ATOM      9  O   ALA B   3       6.938  91.640  66.439  1.00  0.00    -0.271 OA
BRANCH   8  10
ATOM     10  CA  ALA B   3       6.165  92.333  64.303  1.00  0.00     0.172 C 
ATOM     11  CB  ALA B   3       4.983  92.970  65.053  1.00  0.00     0.042 C 
BRANCH  10  12
ATOM     12  N   ALA B   3       5.618  91.391  63.331  1.00  0.00    -0.346 N 
ATOM     13  H   ALA B   3       5.250  90.528  63.666  1.00  0.00     0.163 HD
ATOM     14  C   CYS B   2       5.583  91.630  62.005  1.00  0.00     0.241 C 
ATOM     15  O   CYS B   2       5.993  92.686  61.532  1.00  0.00    -0.271 OA
BRANCH  14  16
ATOM     16  CA  CYS B   2       5.034  90.528  61.128  1.00  0.00     0.185 C 
BRANCH  16  17
ATOM     17  N   CYS B   2       6.113  89.794  60.473  1.00  0.00    -0.345 N 
ATOM     18  C   LYS B   1       6.063  89.491  59.172  1.00  0.00     0.254 C 
ATOM     19  O   LYS B   1       5.084  89.768  58.471  1.00  0.00    -0.271 OA
ATOM     20  H   CYS B   2       6.894  89.516  61.000  1.00  0.00     0.163 HD
BRANCH  18  21
ATOM     21  CA  LYS B   1       7.252  88.746  58.614  1.00  0.00     0.350 C 
BRANCH  21  22
ATOM     22  CB  LYS B   1       6.843  87.326  58.137  1.00  0.00     0.048 C 
BRANCH  22  23
ATOM     23  CG  LYS B   1       6.491  86.363  59.299  1.00  0.00     0.004 C 
BRANCH  23  24
ATOM     24  CD  LYS B   1       4.994  86.105  59.490  1.00  0.00     0.027 C 
BRANCH  24  25
ATOM     25  CE  LYS B   1       4.765  85.440  60.854  1.00  0.00     0.229 C 
BRANCH  25  26
ATOM     26  NZ  LYS B   1       3.320  85.388  61.137  1.00  0.00    -0.079 N 
ATOM     27  HZ3 LYS B   1       2.857  85.762  60.321  1.00  0.00     0.274 HD
ATOM     28  HZ2 LYS B   1       3.083  85.932  61.973  1.00  0.00     0.274 HD
ATOM     29  HZ1 LYS B   1       3.024  84.424  61.330  1.00  0.00     0.274 HD
ENDBRANCH  25  26
ENDBRANCH  24  25
ENDBRANCH  23  24
ENDBRANCH  22  23
ENDBRANCH  21  22
BRANCH  21  30
ATOM     30  N   LYS B   1       8.315  88.637  59.609  1.00  0.00     0.312 N 
ATOM     31  H   LYS B   1       9.107  89.309  59.361  1.00  0.00     0.359 HD
ENDBRANCH  21  30
ENDBRANCH  18  21
ENDBRANCH  16  17
BRANCH  16  32
ATOM     32  CB  CYS B   2       4.168  89.526  61.916  1.00  0.00     0.105 C 
BRANCH  32  33
ATOM     33  SG  CYS B   2       2.672  89.108  60.991  1.00  0.00    -0.180 SA
ATOM     34  HG  CYS B   2       2.602  90.233  60.284  1.00  0.00     0.101 HD
ENDBRANCH  32  33
ENDBRANCH  16  32
ENDBRANCH  14  16
ENDBRANCH  10  12
ENDBRANCH   8  10
ENDBRANCH   5   6
BRANCH   5  35
ATOM     35  CB  GLU B   4       9.443  88.932  64.870  1.00  0.00     0.045 C 
BRANCH  35  36
ATOM     36  CG  GLU B   4       8.187  88.169  64.482  1.00  0.00     0.116 C 
BRANCH  36  37
ATOM     37  CD  GLU B   4       7.794  88.384  63.033  1.00  0.00     0.172 C 
ATOM     38  OE2 GLU B   4       8.260  89.375  62.433  1.00  0.00    -0.648 OA
ATOM     39  OE1 GLU B   4       7.021  87.561  62.500  1.00  0.00    -0.648 OA
ENDBRANCH  36  37
ENDBRANCH  35  36
ENDBRANCH   5  35
ENDBRANCH   1   5
BRANCH   4  40
ATOM     40  CA  THR B   5      12.086  92.493  64.384  1.00  7.88     0.205 C 
BRANCH  40  41
ATOM     41  CB  THR B   5      13.018  91.966  63.291  1.00  4.05     0.146 C 
ATOM     42  CG2 THR B   5      14.470  91.925  63.712  1.00  3.72     0.042 C 
BRANCH  41  43
ATOM     43  OG1 THR B   5      12.646  90.654  62.906  1.00  7.31    -0.393 OA
ATOM     44  HG1 THR B   5      11.821  90.417  63.335  1.00  0.23     0.210 HD
ENDBRANCH  41  43
ENDBRANCH  40  41
BRANCH  40  45
ATOM     45  C   THR B   5      11.759  93.960  64.126  1.00  7.05     0.243 C 
ATOM     46  N   TRP B   6      12.288  94.497  63.031  1.00  0.00    -0.346 N 
ATOM     47  H   TRP B   6      12.850  93.943  62.450  1.00  0.23     0.163 HD
ATOM     48  O   THR B   5      11.046  94.593  64.904  1.00  6.06    -0.271 OA
BRANCH  46  49
ATOM     49  CA  TRP B   6      12.054  95.891  62.675  1.00  0.00     0.181 C 
BRANCH  49  50
ATOM     50  CB  TRP B   6      12.868  96.812  63.585  1.00  0.00     0.075 C 
BRANCH  50  51
ATOM     51  CG  TRP B   6      14.293  96.374  63.736  1.00  0.00    -0.028 A 
ATOM     52  CD2 TRP B   6      15.314  97.027  64.500  1.00  0.00    -0.002 A 
ATOM     53  CE2 TRP B   6      16.489  96.265  64.363  1.00  0.00     0.042 A 
ATOM     54  CE3 TRP B   6      15.347  98.183  65.285  1.00  0.00     0.014 A 
ATOM     55  CZ2 TRP B   6      17.683  96.622  64.983  1.00  0.00     0.030 A 
ATOM     56  NE1 TRP B   6      16.196  95.198  63.553  1.00  0.00    -0.365 N 
ATOM     57  CH2 TRP B   6      17.689  97.758  65.745  1.00  0.00     0.002 A 
ATOM     58  CZ3 TRP B   6      16.535  98.536  65.900  1.00  0.00     0.001 A 
ATOM     59  HE1 TRP B   6      16.826  94.497  63.283  1.00  0.23     0.165 HD
ATOM     60  CD1 TRP B   6      14.876  95.271  63.182  1.00  0.00     0.096 A 
ENDBRANCH  50  51
ENDBRANCH  49  50
BRANCH  49  61
ATOM     61  C   TRP B   6      12.410  96.147  61.214  1.00  0.00     0.241 C 
ATOM     62  N   VAL B   7      11.719  97.106  60.605  1.00  6.11    -0.344 N 
ATOM     63  H   VAL B   7      11.033  97.593  61.106  1.00  0.23     0.163 HD
ATOM     64  O   TRP B   6      13.286  95.489  60.653  1.00  0.00    -0.271 OA
BRANCH  62  65
ATOM     65  CA  VAL B   7      11.956  97.450  59.209  1.00  5.65     0.189 C 
BRANCH  65  66
ATOM     66  CB  VAL B   7      10.811  98.315  58.646  1.00  1.15     0.010 C 
ATOM     67  CG1 VAL B   7       9.698  97.434  58.095  1.00  4.96     0.012 C 
ATOM     68  CG2 VAL B   7      10.275  99.258  59.713  1.00  9.83     0.012 C 
ENDBRANCH  65  66
BRANCH  65  69
ATOM     69  C   VAL B   7      13.275  98.200  59.042  1.00  4.44     0.197 C 
ATOM     70  OXT VAL B   7      13.459  99.231  59.720  1.00  0.00    -0.646 OA
ATOM     71  O   VAL B   7      14.113  97.746  58.235  1.00  0.00    -0.646 OA
ENDBRANCH  65  69
ENDBRANCH  62  65
ENDBRANCH  49  61
ENDBRANCH  46  49
ENDBRANCH  40  45
ENDBRANCH   4  40
TORSDOF 29
ENDMDL
MODEL 8
REMARK VINA RESULT:      -4.7      4.059      7.246
REMARK  29 active torsions:
REMARK  status: ('A' for Active; 'I' for Inactive)
REMARK    1  A    between atoms: N_1  and  CA_2 
REMARK    2  A    between atoms: CA_2  and  CB_5 
REMARK    3  A    between atoms: CA_2  and  C_3 
REMARK       I    between atoms: C_3  and  N_14 
REMARK    4  A    between atoms: CB_5  and  CG_6 
REMARK    5  A    between atoms: CG_6  and  CD_7 
REMARK    6  A    between atoms: CD_7  and  CE_8 
REMARK    7  A    between atoms: CE_8  and  NZ_9 
REMARK    8  A    between atoms: N_14  and  CA_15 
REMARK    9  A    between atoms: CA_15  and  C_16 
REMARK   10  A    between atoms: CA_15  and  CB_18 
REMARK       I    between atoms: C_16  and  N_22 
REMARK   11  A    between atoms: CB_18  and  SG_19 
REMARK   12  A    between atoms: N_22  and  CA_23 
REMARK   13  A    between atoms: CA_23  and  C_24 
REMARK       I    between atoms: C_24  and  N_34 
REMARK   14  A    between atoms: CA_28  and  N_34 
REMARK   15  A    between atoms: CA_28  and  CB_30 
REMARK   16  A    between atoms: CA_28  and  C_29 
REMARK       I    between atoms: C_29  and  N_44 
REMARK   17  A    between atoms: CB_30  and  CG_31 
REMARK   18  A    between atoms: CG_31  and  CD_32 
REMARK   19  A    between atoms: CA_38  and  N_44 
REMARK   20  A    between atoms: CA_38  and  CB_40 
REMARK   21  A    between atoms: CA_38  and  C_39 
REMARK       I    between atoms: C_39  and  N_60 
REMARK   22  A    between atoms: CB_40  and  OG1_46 
REMARK   23  A    between atoms: CA_47  and  CB_49 
REMARK   24  A    between atoms: CA_47  and  N_60 
REMARK   25  A    between atoms: CA_47  and  C_48 
REMARK       I    between atoms: C_48  and  N_69 
REMARK   26  A    between atoms: CB_49  and  CG_50 
REMARK   27  A    between atoms: CA_63  and  N_69 
REMARK   28  A    between atoms: CA_63  and  CB_65 
REMARK   29  A    between atoms: CA_63  and  C_64 
ROOT
ATOM      1  C   GLU B   4       9.495  91.395  64.416  1.00  0.00     0.241 C 
ATOM      2  O   GLU B   4       9.411  91.735  65.596  1.00  0.00    -0.271 OA
ATOM      3  H   THR B   5      10.539  91.398  62.712  1.00  0.23     0.163 HD
ATOM      4  N   THR B   5      10.536  91.698  63.645  1.00  7.70    -0.344 N 
ENDROOT
BRANCH   1   5
ATOM      5  CA  GLU B   4       8.379  90.591  63.753  1.00  0.00     0.177 C 
BRANCH   5   6
ATOM      6  N   GLU B   4       8.033  91.157  62.451  1.00  0.00    -0.346 N 
ATOM      7  H   GLU B   4       8.451  90.793  61.644  1.00  0.23     0.163 HD
ATOM      8  C   ALA B   3       7.181  92.170  62.348  1.00  0.00     0.240 C 
ATOM      9  O   ALA B   3       6.603  92.663  63.314  1.00  0.00    -0.271 OA
BRANCH   8  10
ATOM     10  CA  ALA B   3       6.876  92.665  60.955  1.00  0.00     0.172 C 
ATOM     11  CB  ALA B   3       5.889  93.844  60.944  1.00  0.00     0.042 C 
BRANCH  10  12
ATOM     12  N   ALA B   3       6.304  91.601  60.135  1.00  0.00    -0.346 N 
ATOM     13  H   ALA B   3       6.863  91.214  59.407  1.00  0.00     0.163 HD
ATOM     14  C   CYS B   2       5.060  91.112  60.314  1.00  0.00     0.241 C 
ATOM     15  O   CYS B   2       4.333  91.525  61.213  1.00  0.00    -0.271 OA
BRANCH  14  16
ATOM     16  CA  CYS B   2       4.600  90.048  59.345  1.00  0.00     0.185 C 
BRANCH  16  17
ATOM     17  N   CYS B   2       4.754  88.715  59.921  1.00  0.00    -0.345 N 
ATOM     18  C   LYS B   1       5.910  88.050  59.847  1.00  0.00     0.254 C 
ATOM     19  O   LYS B   1       6.890  88.502  59.245  1.00  0.00    -0.271 OA
ATOM     20  H   CYS B   2       3.988  88.297  60.375  1.00  0.00     0.163 HD
BRANCH  18  21
ATOM     21  CA  LYS B   1       5.941  86.688  60.500  1.00  0.00     0.350 C 
BRANCH  21  22
ATOM     22  CB  LYS B   1       7.250  85.932  60.146  1.00  0.00     0.048 C 
BRANCH  22  23
ATOM     23  CG  LYS B   1       7.008  84.607  59.380  1.00  0.00     0.004 C 
BRANCH  23  24
ATOM     24  CD  LYS B   1       7.593  84.565  57.965  1.00  0.00     0.027 C 
BRANCH  24  25
ATOM     25  CE  LYS B   1       6.630  85.268  56.998  1.00  0.00     0.229 C 
BRANCH  25  26
ATOM     26  NZ  LYS B   1       7.048  86.670  56.824  1.00  0.00    -0.079 N 
ATOM     27  HZ3 LYS B   1       7.817  86.658  56.170  1.00  0.00     0.274 HD
ATOM     28  HZ2 LYS B   1       7.333  87.088  57.715  1.00  0.00     0.274 HD
ATOM     29  HZ1 LYS B   1       6.267  87.240  56.478  1.00  0.00     0.274 HD
ENDBRANCH  25  26
ENDBRANCH  24  25
ENDBRANCH  23  24
ENDBRANCH  22  23
ENDBRANCH  21  22
BRANCH  21  30
ATOM     30  N   LYS B   1       4.791  85.886  60.092  1.00  0.00     0.312 N 
ATOM     31  H   LYS B   1       5.021  84.850  60.200  1.00  0.00     0.359 HD
ENDBRANCH  21  30
ENDBRANCH  18  21
ENDBRANCH  16  17
BRANCH  16  32
ATOM     32  CB  CYS B   2       3.130  90.233  58.922  1.00  0.00     0.105 C 
BRANCH  32  33
ATOM     33  SG  CYS B   2       2.066  89.041  59.768  1.00  0.00    -0.180 SA
ATOM     34  HG  CYS B   2       2.819  87.967  59.542  1.00  0.00     0.101 HD
ENDBRANCH  32  33
ENDBRANCH  16  32
ENDBRANCH  14  16
ENDBRANCH  10  12
ENDBRANCH   8  10
ENDBRANCH   5   6
BRANCH   5  35
ATOM     35  CB  GLU B   4       8.812  89.132  63.606  1.00  0.00     0.045 C 
BRANCH  35  36
ATOM     36  CG  GLU B   4       7.666  88.144  63.752  1.00  0.00     0.116 C 
BRANCH  36  37
ATOM     37  CD  GLU B   4       6.342  88.822  64.048  1.00  0.00     0.172 C 
ATOM     38  OE2 GLU B   4       5.588  89.095  63.091  1.00  0.00    -0.648 OA
ATOM     39  OE1 GLU B   4       6.060  89.079  65.237  1.00  0.00    -0.648 OA
ENDBRANCH  36  37
ENDBRANCH  35  36
ENDBRANCH   5  35
ENDBRANCH   1   5
BRANCH   4  40
ATOM     40  CA  THR B   5      11.671  92.465  64.148  1.00  7.88     0.205 C 
BRANCH  40  41
ATOM     41  CB  THR B   5      12.959  92.025  63.450  1.00  4.05     0.146 C 
ATOM     42  CG2 THR B   5      14.152  91.966  64.380  1.00  3.72     0.042 C 
BRANCH  41  43
ATOM     43  OG1 THR B   5      12.802  90.742  62.871  1.00  7.31    -0.393 OA
ATOM     44  HG1 THR B   5      11.930  90.673  62.477  1.00  0.23     0.210 HD
ENDBRANCH  41  43
ENDBRANCH  40  41
BRANCH  40  45
ATOM     45  C   THR B   5      11.448  93.958  63.935  1.00  7.05     0.243 C 
ATOM     46  N   TRP B   6      11.995  94.486  62.846  1.00  0.00    -0.346 N 
ATOM     47  H   TRP B   6      12.506  93.909  62.240  1.00  0.23     0.163 HD
ATOM     48  O   THR B   5      10.795  94.619  64.742  1.00  6.06    -0.271 OA
BRANCH  46  49
ATOM     49  CA  TRP B   6      11.858  95.902  62.531  1.00  0.00     0.181 C 
BRANCH  49  50
ATOM     50  CB  TRP B   6      12.688  96.742  63.503  1.00  0.00     0.075 C 
BRANCH  50  51
ATOM     51  CG  TRP B   6      14.106  96.272  63.616  1.00  0.00    -0.028 A 
ATOM     52  CD2 TRP B   6      15.151  96.882  64.383  1.00  0.00    -0.002 A 
ATOM     53  CE2 TRP B   6      16.310  96.103  64.202  1.00  0.00     0.042 A 
ATOM     54  CE3 TRP B   6      15.219  98.011  65.204  1.00  0.00     0.014 A 
ATOM     55  CZ2 TRP B   6      17.520  96.418  64.813  1.00  0.00     0.030 A 
ATOM     56  NE1 TRP B   6      15.984  95.068  63.364  1.00  0.00    -0.365 N 
ATOM     57  CH2 TRP B   6      17.560  97.528  65.611  1.00  0.00     0.002 A 
ATOM     58  CZ3 TRP B   6      16.424  98.322  65.810  1.00  0.00     0.001 A 
ATOM     59  HE1 TRP B   6      16.596  94.364  63.062  1.00  0.23     0.165 HD
ATOM     60  CD1 TRP B   6      14.659  95.178  63.017  1.00  0.00     0.096 A 
ENDBRANCH  50  51
ENDBRANCH  49  50
BRANCH  49  61
ATOM     61  C   TRP B   6      12.285  96.185  61.094  1.00  0.00     0.241 C 
ATOM     62  N   VAL B   7      11.635  97.165  60.474  1.00  6.11    -0.344 N 
ATOM     63  H   VAL B   7      10.932  97.650  60.953  1.00  0.23     0.163 HD
ATOM     64  O   TRP B   6      13.179  95.527  60.560  1.00  0.00    -0.271 OA
BRANCH  62  65
ATOM     65  CA  VAL B   7      11.941  97.536  59.098  1.00  5.65     0.189 C 
BRANCH  65  66
ATOM     66  CB  VAL B   7      10.795  98.356  58.474  1.00  1.15     0.010 C 
ATOM     67  CG1 VAL B   7       9.670  97.439  58.017  1.00  4.96     0.012 C 
ATOM     68  CG2 VAL B   7      10.278  99.394  59.458  1.00  9.83     0.012 C 
ENDBRANCH  65  66
BRANCH  65  69
ATOM     69  C   VAL B   7      13.233  98.345  59.020  1.00  4.44     0.197 C 
ATOM     70  OXT VAL B   7      13.453  99.196  59.906  1.00  0.00    -0.646 OA
ATOM     71  O   VAL B   7      14.014  98.118  58.073  1.00  0.00    -0.646 OA
ENDBRANCH  65  69
ENDBRANCH  62  65
ENDBRANCH  49  61
ENDBRANCH  46  49
ENDBRANCH  40  45
ENDBRANCH   4  40
TORSDOF 29
ENDMDL
MODEL 9
REMARK VINA RESULT:      -4.4      4.164      7.232
REMARK  29 active torsions:
REMARK  status: ('A' for Active; 'I' for Inactive)
REMARK    1  A    between atoms: N_1  and  CA_2 
REMARK    2  A    between atoms: CA_2  and  CB_5 
REMARK    3  A    between atoms: CA_2  and  C_3 
REMARK       I    between atoms: C_3  and  N_14 
REMARK    4  A    between atoms: CB_5  and  CG_6 
REMARK    5  A    between atoms: CG_6  and  CD_7 
REMARK    6  A    between atoms: CD_7  and  CE_8 
REMARK    7  A    between atoms: CE_8  and  NZ_9 
REMARK    8  A    between atoms: N_14  and  CA_15 
REMARK    9  A    between atoms: CA_15  and  C_16 
REMARK   10  A    between atoms: CA_15  and  CB_18 
REMARK       I    between atoms: C_16  and  N_22 
REMARK   11  A    between atoms: CB_18  and  SG_19 
REMARK   12  A    between atoms: N_22  and  CA_23 
REMARK   13  A    between atoms: CA_23  and  C_24 
REMARK       I    between atoms: C_24  and  N_34 
REMARK   14  A    between atoms: CA_28  and  N_34 
REMARK   15  A    between atoms: CA_28  and  CB_30 
REMARK   16  A    between atoms: CA_28  and  C_29 
REMARK       I    between atoms: C_29  and  N_44 
REMARK   17  A    between atoms: CB_30  and  CG_31 
REMARK   18  A    between atoms: CG_31  and  CD_32 
REMARK   19  A    between atoms: CA_38  and  N_44 
REMARK   20  A    between atoms: CA_38  and  CB_40 
REMARK   21  A    between atoms: CA_38  and  C_39 
REMARK       I    between atoms: C_39  and  N_60 
REMARK   22  A    between atoms: CB_40  and  OG1_46 
REMARK   23  A    between atoms: CA_47  and  CB_49 
REMARK   24  A    between atoms: CA_47  and  N_60 
REMARK   25  A    between atoms: CA_47  and  C_48 
REMARK       I    between atoms: C_48  and  N_69 
REMARK   26  A    between atoms: CB_49  and  CG_50 
REMARK   27  A    between atoms: CA_63  and  N_69 
REMARK   28  A    between atoms: CA_63  and  CB_65 
REMARK   29  A    between atoms: CA_63  and  C_64 
ROOT
ATOM      1  C   GLU B   4      11.218  90.925  65.572  1.00  0.00     0.241 C 
ATOM      2  O   GLU B   4      11.872  91.083  66.603  1.00  0.00    -0.271 OA
ATOM      3  H   THR B   5      10.945  91.370  63.643  1.00  0.23     0.163 HD
ATOM      4  N   THR B   5      11.508  91.538  64.428  1.00  7.70    -0.344 N 
ENDROOT
BRANCH   1   5
ATOM      5  CA  GLU B   4      10.005  90.000  65.551  1.00  0.00     0.177 C 
BRANCH   5   6
ATOM      6  N   GLU B   4       8.806  90.704  66.001  1.00  0.00    -0.346 N 
ATOM      7  H   GLU B   4       8.505  91.498  65.512  1.00  0.23     0.163 HD
ATOM      8  C   ALA B   3       8.134  90.299  67.072  1.00  0.00     0.240 C 
ATOM      9  O   ALA B   3       8.441  89.302  67.720  1.00  0.00    -0.271 OA
BRANCH   8  10
ATOM     10  CA  ALA B   3       6.897  91.084  67.437  1.00  0.00     0.172 C 
ATOM     11  CB  ALA B   3       6.274  90.629  68.767  1.00  0.00     0.042 C 
BRANCH  10  12
ATOM     12  N   ALA B   3       5.874  90.960  66.403  1.00  0.00    -0.346 N 
ATOM     13  H   ALA B   3       5.257  90.178  66.441  1.00  0.00     0.163 HD
ATOM     14  C   CYS B   2       5.719  91.848  65.401  1.00  0.00     0.241 C 
ATOM     15  O   CYS B   2       6.427  92.848  65.316  1.00  0.00    -0.271 OA
BRANCH  14  16
ATOM     16  CA  CYS B   2       4.647  91.545  64.381  1.00  0.00     0.185 C 
BRANCH  16  17
ATOM     17  N   CYS B   2       5.209  91.484  63.034  1.00  0.00    -0.345 N 
ATOM     18  C   LYS B   1       5.081  92.501  62.177  1.00  0.00     0.254 C 
ATOM     19  O   LYS B   1       4.440  93.519  62.457  1.00  0.00    -0.271 OA
ATOM     20  H   CYS B   2       5.693  90.677  62.751  1.00  0.00     0.163 HD
BRANCH  18  21
ATOM     21  CA  LYS B   1       5.725  92.318  60.822  1.00  0.00     0.350 C 
BRANCH  21  22
ATOM     22  CB  LYS B   1       4.824  91.462  59.891  1.00  0.00     0.048 C 
BRANCH  22  23
ATOM     23  CG  LYS B   1       5.231  89.968  59.845  1.00  0.00     0.004 C 
BRANCH  23  24
ATOM     24  CD  LYS B   1       5.839  89.506  58.518  1.00  0.00     0.027 C 
BRANCH  24  25
ATOM     25  CE  LYS B   1       6.818  88.354  58.784  1.00  0.00     0.229 C 
BRANCH  25  26
ATOM     26  NZ  LYS B   1       8.152  88.904  59.082  1.00  0.00    -0.079 N 
ATOM     27  HZ3 LYS B   1       8.106  89.269  60.022  1.00  0.00     0.274 HD
ATOM     28  HZ2 LYS B   1       8.410  89.640  58.416  1.00  0.00     0.274 HD
ATOM     29  HZ1 LYS B   1       8.872  88.176  58.995  1.00  0.00     0.274 HD
ENDBRANCH  25  26
ENDBRANCH  24  25
ENDBRANCH  23  24
ENDBRANCH  22  23
ENDBRANCH  21  22
BRANCH  21  30
ATOM     30  N   LYS B   1       7.035  91.686  60.948  1.00  0.00     0.312 N 
ATOM     31  H   LYS B   1       7.507  92.016  61.847  1.00  0.00     0.359 HD
ENDBRANCH  21  30
ENDBRANCH  18  21
ENDBRANCH  16  17
BRANCH  16  32
ATOM     32  CB  CYS B   2       3.920  90.217  64.668  1.00  0.00     0.105 C 
BRANCH  32  33
ATOM     33  SG  CYS B   2       3.197  89.542  63.154  1.00  0.00    -0.180 SA
ATOM     34  HG  CYS B   2       2.123  88.999  63.720  1.00  0.00     0.101 HD
ENDBRANCH  32  33
ENDBRANCH  16  32
ENDBRANCH  14  16
ENDBRANCH  10  12
ENDBRANCH   8  10
ENDBRANCH   5   6
BRANCH   5  35
ATOM     35  CB  GLU B   4       9.804  89.445  64.140  1.00  0.00     0.045 C 
BRANCH  35  36
ATOM     36  CG  GLU B   4       8.575  90.002  63.441  1.00  0.00     0.116 C 
BRANCH  36  37
ATOM     37  CD  GLU B   4       7.403  89.039  63.458  1.00  0.00     0.172 C 
ATOM     38  OE2 GLU B   4       7.078  88.519  64.546  1.00  0.00    -0.648 OA
ATOM     39  OE1 GLU B   4       6.812  88.806  62.384  1.00  0.00    -0.648 OA
ENDBRANCH  36  37
ENDBRANCH  35  36
ENDBRANCH   5  35
ENDBRANCH   1   5
BRANCH   4  40
ATOM     40  CA  THR B   5      12.639  92.453  64.307  1.00  7.88     0.205 C 
BRANCH  40  41
ATOM     41  CB  THR B   5      13.560  92.011  63.168  1.00  4.05     0.146 C 
ATOM     42  CG2 THR B   5      14.993  91.801  63.606  1.00  3.72     0.042 C 
BRANCH  41  43
ATOM     43  OG1 THR B   5      13.104  90.797  62.598  1.00  7.31    -0.393 OA
ATOM     44  HG1 THR B   5      12.211  90.915  62.267  1.00  0.23     0.210 HD
ENDBRANCH  41  43
ENDBRANCH  40  41
BRANCH  40  45
ATOM     45  C   THR B   5      12.153  93.877  64.060  1.00  7.05     0.243 C 
ATOM     46  N   TRP B   6      12.652  94.492  62.993  1.00  0.00    -0.346 N 
ATOM     47  H   TRP B   6      13.294  94.019  62.424  1.00  0.23     0.163 HD
ATOM     48  O   THR B   5      11.345  94.408  64.822  1.00  6.06    -0.271 OA
BRANCH  46  49
ATOM     49  CA  TRP B   6      12.271  95.857  62.651  1.00  0.00     0.181 C 
BRANCH  49  50
ATOM     50  CB  TRP B   6      13.018  96.852  63.539  1.00  0.00     0.075 C 
BRANCH  50  51
ATOM     51  CG  TRP B   6      14.447  96.470  63.773  1.00  0.00    -0.028 A 
ATOM     52  CD2 TRP B   6      15.405  97.181  64.566  1.00  0.00    -0.002 A 
ATOM     53  CE2 TRP B   6      16.611  96.457  64.509  1.00  0.00     0.042 A 
ATOM     54  CE3 TRP B   6      15.360  98.359  65.316  1.00  0.00     0.014 A 
ATOM     55  CZ2 TRP B   6      17.760  96.874  65.176  1.00  0.00     0.030 A 
ATOM     56  NE1 TRP B   6      16.396  95.357  63.720  1.00  0.00    -0.365 N 
ATOM     57  CH2 TRP B   6      17.690  98.031  65.903  1.00  0.00     0.002 A 
ATOM     58  CZ3 TRP B   6      16.504  98.771  65.977  1.00  0.00     0.001 A 
ATOM     59  HE1 TRP B   6      17.062  94.672  63.503  1.00  0.23     0.165 HD
ATOM     60  CD1 TRP B   6      15.094  95.373  63.282  1.00  0.00     0.096 A 
ENDBRANCH  50  51
ENDBRANCH  49  50
BRANCH  49  61
ATOM     61  C   TRP B   6      12.554  96.149  61.180  1.00  0.00     0.241 C 
ATOM     62  N   VAL B   7      11.764  97.048  60.601  1.00  6.11    -0.344 N 
ATOM     63  H   VAL B   7      11.057  97.472  61.128  1.00  0.23     0.163 HD
ATOM     64  O   TRP B   6      13.464  95.570  60.586  1.00  0.00    -0.271 OA
BRANCH  62  65
ATOM     65  CA  VAL B   7      11.924  97.417  59.200  1.00  5.65     0.189 C 
BRANCH  65  66
ATOM     66  CB  VAL B   7      10.667  98.132  58.666  1.00  1.15     0.010 C 
ATOM     67  CG1 VAL B   7      10.983  98.874  57.375  1.00  4.96     0.012 C 
ATOM     68  CG2 VAL B   7       9.534  97.139  58.454  1.00  9.83     0.012 C 
ENDBRANCH  65  66
BRANCH  65  69
ATOM     69  C   VAL B   7      13.135  98.325  59.004  1.00  4.44     0.197 C 
ATOM     70  OXT VAL B   7      13.984  98.002  58.149  1.00  0.00    -0.646 OA
ATOM     71  O   VAL B   7      13.221  99.352  59.709  1.00  0.00    -0.646 OA
ENDBRANCH  65  69
ENDBRANCH  62  65
ENDBRANCH  49  61
ENDBRANCH  46  49
ENDBRANCH  40  45
ENDBRANCH   4  40
TORSDOF 29
ENDMDL
