MODEL 1
REMARK VINA RESULT:      -7.2      0.000      0.000
REMARK  31 active torsions:
REMARK  status: ('A' for Active; 'I' for Inactive)
REMARK    1  A    between atoms: N_1  and  CA_2 
REMARK    2  A    between atoms: CA_2  and  C_3 
REMARK    3  A    between atoms: CA_2  and  CB_5 
REMARK       I    between atoms: C_3  and  N_14 
REMARK    4  A    between atoms: CB_5  and  CG_6 
REMARK    5  A    between atoms: CG_6  and  CD_7 
REMARK    6  A    between atoms: CD_7  and  CE_8 
REMARK    7  A    between atoms: CE_8  and  NZ_9 
REMARK    8  A    between atoms: N_14  and  CA_15 
REMARK    9  A    between atoms: CA_15  and  C_16 
REMARK   10  A    between atoms: CA_15  and  CB_18 
REMARK       I    between atoms: C_16  and  N_22 
REMARK   11  A    between atoms: CB_18  and  SG_19 
REMARK   12  A    between atoms: N_22  and  CA_23 
REMARK   13  A    between atoms: CA_23  and  CB_26 
REMARK   14  A    between atoms: CA_23  and  C_24 
REMARK       I    between atoms: C_24  and  N_37 
REMARK   15  A    between atoms: CB_26  and  CG1_27 
REMARK   16  A    between atoms: CA_31  and  N_37 
REMARK   17  A    between atoms: CA_31  and  CB_33 
REMARK   18  A    between atoms: CA_31  and  C_32 
REMARK       I    between atoms: C_32  and  N_47 
REMARK   19  A    between atoms: CB_33  and  CG_34 
REMARK   20  A    between atoms: CG_34  and  CD_35 
REMARK   21  A    between atoms: CA_41  and  N_47 
REMARK   22  A    between atoms: CA_41  and  CB_43 
REMARK   23  A    between atoms: CA_41  and  C_42 
REMARK       I    between atoms: C_42  and  N_63 
REMARK   24  A    between atoms: CB_43  and  OG1_49 
REMARK   25  A    between atoms: CA_50  and  CB_52 
REMARK   26  A    between atoms: CA_50  and  N_63 
REMARK   27  A    between atoms: CA_50  and  C_51 
REMARK       I    between atoms: C_51  and  N_72 
REMARK   28  A    between atoms: CB_52  and  CG_53 
REMARK   29  A    between atoms: CA_66  and  N_72 
REMARK   30  A    between atoms: CA_66  and  CB_68 
REMARK   31  A    between atoms: CA_66  and  C_67 
ROOT
ATOM      1  CA  GLU B   4      12.148  95.814  61.570  1.00  0.00     0.177 C 
ENDROOT
BRANCH   1   2
ATOM      2  N   GLU B   4      11.780  97.130  61.051  1.00  0.00    -0.346 N 
ATOM      3  H   GLU B   4      11.128  97.673  61.541  1.00  0.23     0.163 HD
ATOM      4  C   ILE B   3      12.293  97.593  59.915  1.00  0.00     0.241 C 
ATOM      5  O   ILE B   3      13.133  96.973  59.263  1.00  0.00    -0.271 OA
BRANCH   4   6
ATOM      6  CA  ILE B   3      11.845  98.972  59.493  1.00  0.00     0.180 C 
BRANCH   6   7
ATOM      7  N   ILE B   3      12.104  99.195  58.074  1.00  0.00    -0.346 N 
ATOM      8  C   CYS B   2      12.096 100.431  57.534  1.00  0.00     0.241 C 
ATOM      9  O   CYS B   2      11.910 101.444  58.203  1.00  0.00    -0.271 OA
ATOM     10  H   ILE B   3      12.287  98.431  57.501  1.00  0.00     0.163 HD
BRANCH   8  11
ATOM     11  CA  CYS B   2      12.387 100.500  56.053  1.00  0.00     0.185 C 
BRANCH  11  12
ATOM     12  N   CYS B   2      13.747 100.971  55.809  1.00  0.00    -0.345 N 
ATOM     13  H   CYS B   2      13.884 101.839  55.369  1.00  0.00     0.163 HD
ATOM     14  C   LYS B   1      14.812 100.248  56.169  1.00  0.00     0.254 C 
ATOM     15  O   LYS B   1      14.703  99.174  56.771  1.00  0.00    -0.271 OA
BRANCH  14  16
ATOM     16  CA  LYS B   1      16.163 100.840  55.842  1.00  0.00     0.350 C 
BRANCH  16  17
ATOM     17  N   LYS B   1      17.198  99.810  55.837  1.00  0.00     0.312 N 
ATOM     18  H   LYS B   1      18.127 100.238  55.533  1.00  0.00     0.359 HD
ENDBRANCH  16  17
BRANCH  16  19
ATOM     19  CB  LYS B   1      16.137 101.553  54.462  1.00  0.00     0.048 C 
BRANCH  19  20
ATOM     20  CG  LYS B   1      16.939 100.807  53.368  1.00  0.00     0.004 C 
BRANCH  20  21
ATOM     21  CD  LYS B   1      16.892 101.453  51.980  1.00  0.00     0.027 C 
BRANCH  21  22
ATOM     22  CE  LYS B   1      16.471 100.400  50.946  1.00  0.00     0.229 C 
BRANCH  22  23
ATOM     23  NZ  LYS B   1      15.721 101.053  49.860  1.00  0.00    -0.079 N 
ATOM     24  HZ3 LYS B   1      16.193 101.927  49.674  1.00  0.00     0.274 HD
ATOM     25  HZ2 LYS B   1      14.744 101.216  50.125  1.00  0.00     0.274 HD
ATOM     26  HZ1 LYS B   1      15.694 100.454  49.026  1.00  0.00     0.274 HD
ENDBRANCH  22  23
ENDBRANCH  21  22
ENDBRANCH  20  21
ENDBRANCH  19  20
ENDBRANCH  16  19
ENDBRANCH  14  16
ENDBRANCH  11  12
BRANCH  11  27
ATOM     27  CB  CYS B   2      12.206  99.139  55.353  1.00  0.00     0.105 C 
BRANCH  27  28
ATOM     28  SG  CYS B   2      12.330  99.320  53.559  1.00  0.00    -0.180 SA
ATOM     29  HG  CYS B   2      12.580 100.627  53.548  1.00  0.00     0.101 HD
ENDBRANCH  27  28
ENDBRANCH  11  27
ENDBRANCH   8  11
ENDBRANCH   6   7
BRANCH   6  30
ATOM     30  CB  ILE B   3      10.324  99.232  59.851  1.00  0.00     0.013 C 
ATOM     31  CG2 ILE B   3      10.048 100.704  60.282  1.00  0.00     0.012 C 
BRANCH  30  32
ATOM     32  CG1 ILE B   3       9.315  98.859  58.717  1.00  0.00     0.002 C 
ATOM     33  CD1 ILE B   3       9.554  97.502  58.024  1.00  0.00     0.005 C 
ENDBRANCH  30  32
ENDBRANCH   6  30
ENDBRANCH   4   6
ENDBRANCH   1   2
BRANCH   1  34
ATOM     34  CB  GLU B   4      13.422  95.906  62.410  1.00  0.00     0.045 C 
BRANCH  34  35
ATOM     35  CG  GLU B   4      14.447  94.835  62.072  1.00  0.00     0.116 C 
BRANCH  35  36
ATOM     36  CD  GLU B   4      14.381  93.644  63.009  1.00  0.00     0.172 C 
ATOM     37  OE2 GLU B   4      13.694  93.743  64.047  1.00  0.00    -0.648 OA
ATOM     38  OE1 GLU B   4      15.017  92.614  62.703  1.00  0.00    -0.648 OA
ENDBRANCH  35  36
ENDBRANCH  34  35
ENDBRANCH   1  34
BRANCH   1  39
ATOM     39  C   GLU B   4      11.018  95.226  62.411  1.00  0.00     0.241 C 
ATOM     40  N   THR B   5      10.220  94.358  61.796  1.00  7.70    -0.344 N 
ATOM     41  H   THR B   5      10.389  94.142  60.854  1.00  0.23     0.163 HD
ATOM     42  O   GLU B   4      10.876  95.550  63.590  1.00  0.00    -0.271 OA
BRANCH  40  43
ATOM     43  CA  THR B   5       9.103  93.717  62.481  1.00  7.88     0.205 C 
BRANCH  43  44
ATOM     44  CB  THR B   5       7.985  93.394  61.488  1.00  4.05     0.146 C 
ATOM     45  CG2 THR B   5       6.601  93.650  62.042  1.00  3.72     0.042 C 
BRANCH  44  46
ATOM     46  OG1 THR B   5       8.125  94.166  60.309  1.00  7.31    -0.393 OA
ATOM     47  HG1 THR B   5       8.932  94.683  60.359  1.00  0.23     0.210 HD
ENDBRANCH  44  46
ENDBRANCH  43  44
BRANCH  43  48
ATOM     48  C   THR B   5       9.562  92.441  63.180  1.00  7.05     0.243 C 
ATOM     49  N   TRP B   6       8.679  91.450  63.234  1.00  0.00    -0.346 N 
ATOM     50  H   TRP B   6       7.793  91.575  62.833  1.00  0.23     0.163 HD
ATOM     51  O   THR B   5      10.691  92.359  63.663  1.00  6.06    -0.271 OA
BRANCH  49  52
ATOM     52  CA  TRP B   6       8.994  90.181  63.878  1.00  0.00     0.181 C 
BRANCH  52  53
ATOM     53  CB  TRP B   6       8.595  90.225  65.354  1.00  0.00     0.075 C 
BRANCH  53  54
ATOM     54  CG  TRP B   6       7.450  91.152  65.623  1.00  0.00    -0.028 A 
ATOM     55  CD2 TRP B   6       6.061  90.889  65.388  1.00  0.00    -0.002 A 
ATOM     56  CE2 TRP B   6       5.346  92.033  65.791  1.00  0.00     0.042 A 
ATOM     57  CE3 TRP B   6       5.354  89.798  64.875  1.00  0.00     0.014 A 
ATOM     58  CZ2 TRP B   6       3.960  92.114  65.698  1.00  0.00     0.030 A 
ATOM     59  NE1 TRP B   6       6.258  92.948  66.250  1.00  0.00    -0.365 N 
ATOM     60  CH2 TRP B   6       3.292  91.033  65.192  1.00  0.00     0.002 A 
ATOM     61  CZ3 TRP B   6       3.976  89.882  64.783  1.00  0.00     0.001 A 
ATOM     62  HE1 TRP B   6       6.046  93.840  66.596  1.00  0.23     0.165 HD
ATOM     63  CD1 TRP B   6       7.519  92.411  66.145  1.00  0.00     0.096 A 
ENDBRANCH  53  54
ENDBRANCH  52  53
BRANCH  52  64
ATOM     64  C   TRP B   6       8.290  89.024  63.177  1.00  0.00     0.241 C 
ATOM     65  N   VAL B   7       7.725  89.306  62.007  1.00  6.11    -0.344 N 
ATOM     66  H   VAL B   7       7.786  90.218  61.656  1.00  0.23     0.163 HD
ATOM     67  O   TRP B   6       8.256  87.903  63.687  1.00  0.00    -0.271 OA
BRANCH  65  68
ATOM     68  CA  VAL B   7       7.017  88.293  61.234  1.00  5.65     0.189 C 
BRANCH  68  69
ATOM     69  CB  VAL B   7       5.595  88.763  60.870  1.00  1.15     0.010 C 
ATOM     70  CG1 VAL B   7       4.553  87.918  61.589  1.00  4.96     0.012 C 
ATOM     71  CG2 VAL B   7       5.415  90.237  61.199  1.00  9.83     0.012 C 
ENDBRANCH  68  69
BRANCH  68  72
ATOM     72  C   VAL B   7       7.773  87.950  59.954  1.00  4.44     0.197 C 
ATOM     73  OXT VAL B   7       7.896  88.836  59.084  1.00  0.00    -0.646 OA
ATOM     74  O   VAL B   7       8.235  86.796  59.834  1.00  0.00    -0.646 OA
ENDBRANCH  68  72
ENDBRANCH  65  68
ENDBRANCH  52  64
ENDBRANCH  49  52
ENDBRANCH  43  48
ENDBRANCH  40  43
ENDBRANCH   1  39
TORSDOF 31
ENDMDL
MODEL 2
REMARK VINA RESULT:      -6.3      2.062      3.555
REMARK  31 active torsions:
REMARK  status: ('A' for Active; 'I' for Inactive)
REMARK    1  A    between atoms: N_1  and  CA_2 
REMARK    2  A    between atoms: CA_2  and  C_3 
REMARK    3  A    between atoms: CA_2  and  CB_5 
REMARK       I    between atoms: C_3  and  N_14 
REMARK    4  A    between atoms: CB_5  and  CG_6 
REMARK    5  A    between atoms: CG_6  and  CD_7 
REMARK    6  A    between atoms: CD_7  and  CE_8 
REMARK    7  A    between atoms: CE_8  and  NZ_9 
REMARK    8  A    between atoms: N_14  and  CA_15 
REMARK    9  A    between atoms: CA_15  and  C_16 
REMARK   10  A    between atoms: CA_15  and  CB_18 
REMARK       I    between atoms: C_16  and  N_22 
REMARK   11  A    between atoms: CB_18  and  SG_19 
REMARK   12  A    between atoms: N_22  and  CA_23 
REMARK   13  A    between atoms: CA_23  and  CB_26 
REMARK   14  A    between atoms: CA_23  and  C_24 
REMARK       I    between atoms: C_24  and  N_37 
REMARK   15  A    between atoms: CB_26  and  CG1_27 
REMARK   16  A    between atoms: CA_31  and  N_37 
REMARK   17  A    between atoms: CA_31  and  CB_33 
REMARK   18  A    between atoms: CA_31  and  C_32 
REMARK       I    between atoms: C_32  and  N_47 
REMARK   19  A    between atoms: CB_33  and  CG_34 
REMARK   20  A    between atoms: CG_34  and  CD_35 
REMARK   21  A    between atoms: CA_41  and  N_47 
REMARK   22  A    between atoms: CA_41  and  CB_43 
REMARK   23  A    between atoms: CA_41  and  C_42 
REMARK       I    between atoms: C_42  and  N_63 
REMARK   24  A    between atoms: CB_43  and  OG1_49 
REMARK   25  A    between atoms: CA_50  and  CB_52 
REMARK   26  A    between atoms: CA_50  and  N_63 
REMARK   27  A    between atoms: CA_50  and  C_51 
REMARK       I    between atoms: C_51  and  N_72 
REMARK   28  A    between atoms: CB_52  and  CG_53 
REMARK   29  A    between atoms: CA_66  and  N_72 
REMARK   30  A    between atoms: CA_66  and  CB_68 
REMARK   31  A    between atoms: CA_66  and  C_67 
ROOT
ATOM      1  CA  GLU B   4      12.695  95.643  61.401  1.00  0.00     0.177 C 
ENDROOT
BRANCH   1   2
ATOM      2  N   GLU B   4      12.166  96.925  60.938  1.00  0.00    -0.346 N 
ATOM      3  H   GLU B   4      11.532  97.413  61.503  1.00  0.23     0.163 HD
ATOM      4  C   ILE B   3      12.509  97.428  59.756  1.00  0.00     0.241 C 
ATOM      5  O   ILE B   3      13.318  96.878  59.009  1.00  0.00    -0.271 OA
BRANCH   4   6
ATOM      6  CA  ILE B   3      11.908  98.766  59.400  1.00  0.00     0.180 C 
BRANCH   6   7
ATOM      7  N   ILE B   3      12.162  99.098  58.001  1.00  0.00    -0.346 N 
ATOM      8  C   CYS B   2      12.089 100.366  57.545  1.00  0.00     0.241 C 
ATOM      9  O   CYS B   2      11.844 101.319  58.279  1.00  0.00    -0.271 OA
ATOM     10  H   ILE B   3      12.390  98.386  57.381  1.00  0.00     0.163 HD
BRANCH   8  11
ATOM     11  CA  CYS B   2      12.383 100.550  56.075  1.00  0.00     0.185 C 
BRANCH  11  12
ATOM     12  N   CYS B   2      13.758 100.997  55.869  1.00  0.00    -0.345 N 
ATOM     13  H   CYS B   2      13.922 101.886  55.482  1.00  0.00     0.163 HD
ATOM     14  C   LYS B   1      14.800 100.225  56.194  1.00  0.00     0.254 C 
ATOM     15  O   LYS B   1      14.657  99.122  56.731  1.00  0.00    -0.271 OA
BRANCH  14  16
ATOM     16  CA  LYS B   1      16.169 100.799  55.912  1.00  0.00     0.350 C 
BRANCH  16  17
ATOM     17  N   LYS B   1      17.195  99.762  55.983  1.00  0.00     0.312 N 
ATOM     18  H   LYS B   1      16.736  98.800  55.916  1.00  0.00     0.359 HD
ENDBRANCH  16  17
BRANCH  16  19
ATOM     19  CB  LYS B   1      16.211 101.474  54.515  1.00  0.00     0.048 C 
BRANCH  19  20
ATOM     20  CG  LYS B   1      16.370 100.467  53.348  1.00  0.00     0.004 C 
BRANCH  20  21
ATOM     21  CD  LYS B   1      16.413 101.098  51.954  1.00  0.00     0.027 C 
BRANCH  21  22
ATOM     22  CE  LYS B   1      15.426 100.364  51.036  1.00  0.00     0.229 C 
BRANCH  22  23
ATOM     23  NZ  LYS B   1      16.101  99.214  50.410  1.00  0.00    -0.079 N 
ATOM     24  HZ3 LYS B   1      17.078  99.291  50.655  1.00  0.00     0.274 HD
ATOM     25  HZ2 LYS B   1      15.978  99.217  49.392  1.00  0.00     0.274 HD
ATOM     26  HZ1 LYS B   1      15.696  98.331  50.744  1.00  0.00     0.274 HD
ENDBRANCH  22  23
ENDBRANCH  21  22
ENDBRANCH  20  21
ENDBRANCH  19  20
ENDBRANCH  16  19
ENDBRANCH  14  16
ENDBRANCH  11  12
BRANCH  11  27
ATOM     27  CB  CYS B   2      12.161  99.259  55.263  1.00  0.00     0.105 C 
BRANCH  27  28
ATOM     28  SG  CYS B   2      12.488  99.542  53.508  1.00  0.00    -0.180 SA
ATOM     29  HG  CYS B   2      13.377  98.564  53.353  1.00  0.00     0.101 HD
ENDBRANCH  27  28
ENDBRANCH  11  27
ENDBRANCH   8  11
ENDBRANCH   6   7
BRANCH   6  30
ATOM     30  CB  ILE B   3      10.362  98.824  59.736  1.00  0.00     0.013 C 
ATOM     31  CG2 ILE B   3       9.956 100.124  60.496  1.00  0.00     0.012 C 
BRANCH  30  32
ATOM     32  CG1 ILE B   3       9.420  98.669  58.499  1.00  0.00     0.002 C 
ATOM     33  CD1 ILE B   3       9.583  97.368  57.688  1.00  0.00     0.005 C 
ENDBRANCH  30  32
ENDBRANCH   6  30
ENDBRANCH   4   6
ENDBRANCH   1   2
BRANCH   1  34
ATOM     34  CB  GLU B   4      14.080  95.827  62.022  1.00  0.00     0.045 C 
BRANCH  34  35
ATOM     35  CG  GLU B   4      14.045  96.462  63.402  1.00  0.00     0.116 C 
BRANCH  35  36
ATOM     36  CD  GLU B   4      15.421  96.583  64.028  1.00  0.00     0.172 C 
ATOM     37  OE2 GLU B   4      15.614  97.488  64.867  1.00  0.00    -0.648 OA
ATOM     38  OE1 GLU B   4      16.305  95.774  63.678  1.00  0.00    -0.648 OA
ENDBRANCH  35  36
ENDBRANCH  34  35
ENDBRANCH   1  34
BRANCH   1  39
ATOM     39  C   GLU B   4      11.755  95.004  62.419  1.00  0.00     0.241 C 
ATOM     40  N   THR B   5      12.049  93.760  62.788  1.00  7.70    -0.344 N 
ATOM     41  H   THR B   5      12.835  93.322  62.398  1.00  0.23     0.163 HD
ATOM     42  O   GLU B   4      10.789  95.625  62.862  1.00  0.00    -0.271 OA
BRANCH  40  43
ATOM     43  CA  THR B   5      11.238  93.030  63.757  1.00  7.88     0.205 C 
BRANCH  43  44
ATOM     44  CB  THR B   5      11.707  93.336  65.180  1.00  4.05     0.146 C 
ATOM     45  CG2 THR B   5      12.977  92.606  65.561  1.00  3.72     0.042 C 
BRANCH  44  46
ATOM     46  OG1 THR B   5      11.944  94.723  65.341  1.00  7.31    -0.393 OA
ATOM     47  HG1 THR B   5      12.599  95.012  64.702  1.00  0.23     0.210 HD
ENDBRANCH  44  46
ENDBRANCH  43  44
BRANCH  43  48
ATOM     48  C   THR B   5       9.764  93.392  63.605  1.00  7.05     0.243 C 
ATOM     49  N   TRP B   6       9.173  92.994  62.484  1.00  0.00    -0.346 N 
ATOM     50  H   TRP B   6       9.693  92.497  61.819  1.00  0.23     0.163 HD
ATOM     51  O   THR B   5       9.177  94.022  64.485  1.00  6.06    -0.271 OA
BRANCH  49  52
ATOM     52  CA  TRP B   6       7.769  93.282  62.218  1.00  0.00     0.181 C 
BRANCH  52  53
ATOM     53  CB  TRP B   6       7.511  93.303  60.711  1.00  0.00     0.075 C 
BRANCH  53  54
ATOM     54  CG  TRP B   6       6.080  93.037  60.359  1.00  0.00    -0.028 A 
ATOM     55  CD2 TRP B   6       5.533  91.808  59.864  1.00  0.00    -0.002 A 
ATOM     56  CE2 TRP B   6       4.153  92.011  59.680  1.00  0.00     0.042 A 
ATOM     57  CE3 TRP B   6       6.079  90.558  59.558  1.00  0.00     0.014 A 
ATOM     58  CZ2 TRP B   6       3.311  91.008  59.205  1.00  0.00     0.030 A 
ATOM     59  NE1 TRP B   6       3.873  93.302  60.046  1.00  0.00    -0.365 N 
ATOM     60  CH2 TRP B   6       3.870  89.794  58.912  1.00  0.00     0.002 A 
ATOM     61  CZ3 TRP B   6       5.240  89.564  59.086  1.00  0.00     0.001 A 
ATOM     62  HE1 TRP B   6       2.988  93.722  60.022  1.00  0.23     0.165 HD
ATOM     63  CD1 TRP B   6       5.036  93.911  60.452  1.00  0.00     0.096 A 
ENDBRANCH  53  54
ENDBRANCH  52  53
BRANCH  52  64
ATOM     64  C   TRP B   6       6.865  92.255  62.892  1.00  0.00     0.241 C 
ATOM     65  N   VAL B   7       7.334  91.012  62.950  1.00  6.11    -0.344 N 
ATOM     66  H   VAL B   7       8.216  90.817  62.570  1.00  0.23     0.163 HD
ATOM     67  O   TRP B   6       5.767  92.581  63.343  1.00  0.00    -0.271 OA
BRANCH  65  68
ATOM     68  CA  VAL B   7       6.571  89.933  63.564  1.00  5.65     0.189 C 
BRANCH  68  69
ATOM     69  CB  VAL B   7       6.892  88.578  62.904  1.00  1.15     0.010 C 
ATOM     70  CG1 VAL B   7       5.633  87.961  62.311  1.00  4.96     0.012 C 
ATOM     71  CG2 VAL B   7       7.966  88.739  61.840  1.00  9.83     0.012 C 
ENDBRANCH  68  69
BRANCH  68  72
ATOM     72  C   VAL B   7       6.855  89.839  65.060  1.00  4.44     0.197 C 
ATOM     73  OXT VAL B   7       7.702  90.612  65.551  1.00  0.00    -0.646 OA
ATOM     74  O   VAL B   7       6.224  88.993  65.728  1.00  0.00    -0.646 OA
ENDBRANCH  68  72
ENDBRANCH  65  68
ENDBRANCH  52  64
ENDBRANCH  49  52
ENDBRANCH  43  48
ENDBRANCH  40  43
ENDBRANCH   1  39
TORSDOF 31
ENDMDL
MODEL 3
REMARK VINA RESULT:      -6.3      1.944      3.963
REMARK  31 active torsions:
REMARK  status: ('A' for Active; 'I' for Inactive)
REMARK    1  A    between atoms: N_1  and  CA_2 
REMARK    2  A    between atoms: CA_2  and  C_3 
REMARK    3  A    between atoms: CA_2  and  CB_5 
REMARK       I    between atoms: C_3  and  N_14 
REMARK    4  A    between atoms: CB_5  and  CG_6 
REMARK    5  A    between atoms: CG_6  and  CD_7 
REMARK    6  A    between atoms: CD_7  and  CE_8 
REMARK    7  A    between atoms: CE_8  and  NZ_9 
REMARK    8  A    between atoms: N_14  and  CA_15 
REMARK    9  A    between atoms: CA_15  and  C_16 
REMARK   10  A    between atoms: CA_15  and  CB_18 
REMARK       I    between atoms: C_16  and  N_22 
REMARK   11  A    between atoms: CB_18  and  SG_19 
REMARK   12  A    between atoms: N_22  and  CA_23 
REMARK   13  A    between atoms: CA_23  and  CB_26 
REMARK   14  A    between atoms: CA_23  and  C_24 
REMARK       I    between atoms: C_24  and  N_37 
REMARK   15  A    between atoms: CB_26  and  CG1_27 
REMARK   16  A    between atoms: CA_31  and  N_37 
REMARK   17  A    between atoms: CA_31  and  CB_33 
REMARK   18  A    between atoms: CA_31  and  C_32 
REMARK       I    between atoms: C_32  and  N_47 
REMARK   19  A    between atoms: CB_33  and  CG_34 
REMARK   20  A    between atoms: CG_34  and  CD_35 
REMARK   21  A    between atoms: CA_41  and  N_47 
REMARK   22  A    between atoms: CA_41  and  CB_43 
REMARK   23  A    between atoms: CA_41  and  C_42 
REMARK       I    between atoms: C_42  and  N_63 
REMARK   24  A    between atoms: CB_43  and  OG1_49 
REMARK   25  A    between atoms: CA_50  and  CB_52 
REMARK   26  A    between atoms: CA_50  and  N_63 
REMARK   27  A    between atoms: CA_50  and  C_51 
REMARK       I    between atoms: C_51  and  N_72 
REMARK   28  A    between atoms: CB_52  and  CG_53 
REMARK   29  A    between atoms: CA_66  and  N_72 
REMARK   30  A    between atoms: CA_66  and  CB_68 
REMARK   31  A    between atoms: CA_66  and  C_67 
ROOT
ATOM      1  CA  GLU B   4      12.658  95.999  61.041  1.00  0.00     0.177 C 
ENDROOT
BRANCH   1   2
ATOM      2  N   GLU B   4      12.165  97.258  60.486  1.00  0.00    -0.346 N 
ATOM      3  H   GLU B   4      11.436  97.729  60.940  1.00  0.23     0.163 HD
ATOM      4  C   ILE B   3      12.668  97.762  59.363  1.00  0.00     0.241 C 
ATOM      5  O   ILE B   3      13.599  97.234  58.755  1.00  0.00    -0.271 OA
BRANCH   4   6
ATOM      6  CA  ILE B   3      12.085  99.076  58.901  1.00  0.00     0.180 C 
BRANCH   6   7
ATOM      7  N   ILE B   3      12.091  99.167  57.444  1.00  0.00    -0.346 N 
ATOM      8  C   CYS B   2      12.087 100.355  56.805  1.00  0.00     0.241 C 
ATOM      9  O   CYS B   2      12.116 101.428  57.402  1.00  0.00    -0.271 OA
ATOM     10  H   ILE B   3      12.099  98.349  56.919  1.00  0.00     0.163 HD
BRANCH   8  11
ATOM     11  CA  CYS B   2      12.100 100.287  55.295  1.00  0.00     0.185 C 
BRANCH  11  12
ATOM     12  N   CYS B   2      13.346 100.827  54.758  1.00  0.00    -0.345 N 
ATOM     13  H   CYS B   2      13.311 101.464  54.011  1.00  0.00     0.163 HD
ATOM     14  C   LYS B   1      14.534 100.476  55.260  1.00  0.00     0.254 C 
ATOM     15  O   LYS B   1      14.639  99.721  56.232  1.00  0.00    -0.271 OA
BRANCH  14  16
ATOM     16  CA  LYS B   1      15.746 101.093  54.601  1.00  0.00     0.350 C 
BRANCH  16  17
ATOM     17  N   LYS B   1      16.979 100.590  55.200  1.00  0.00     0.312 N 
ATOM     18  H   LYS B   1      17.633 100.243  54.431  1.00  0.00     0.359 HD
ENDBRANCH  16  17
BRANCH  16  19
ATOM     19  CB  LYS B   1      15.756 100.804  53.075  1.00  0.00     0.048 C 
BRANCH  19  20
ATOM     20  CG  LYS B   1      17.058 101.259  52.371  1.00  0.00     0.004 C 
BRANCH  20  21
ATOM     21  CD  LYS B   1      16.966 101.353  50.845  1.00  0.00     0.027 C 
BRANCH  21  22
ATOM     22  CE  LYS B   1      15.681 100.660  50.372  1.00  0.00     0.229 C 
BRANCH  22  23
ATOM     23  NZ  LYS B   1      16.025  99.398  49.696  1.00  0.00    -0.079 N 
ATOM     24  HZ3 LYS B   1      15.491  98.674  50.156  1.00  0.00     0.274 HD
ATOM     25  HZ2 LYS B   1      17.030  99.203  49.757  1.00  0.00     0.274 HD
ATOM     26  HZ1 LYS B   1      15.805  99.451  48.695  1.00  0.00     0.274 HD
ENDBRANCH  22  23
ENDBRANCH  21  22
ENDBRANCH  20  21
ENDBRANCH  19  20
ENDBRANCH  16  19
ENDBRANCH  14  16
ENDBRANCH  11  12
BRANCH  11  27
ATOM     27  CB  CYS B   2      11.924  98.849  54.770  1.00  0.00     0.105 C 
BRANCH  27  28
ATOM     28  SG  CYS B   2      10.171  98.429  54.630  1.00  0.00    -0.180 SA
ATOM     29  HG  CYS B   2      10.310  97.115  54.783  1.00  0.00     0.101 HD
ENDBRANCH  27  28
ENDBRANCH  11  27
ENDBRANCH   8  11
ENDBRANCH   6   7
BRANCH   6  30
ATOM     30  CB  ILE B   3      10.633  99.313  59.488  1.00  0.00     0.013 C 
ATOM     31  CG2 ILE B   3      10.381 100.798  59.894  1.00  0.00     0.012 C 
BRANCH  30  32
ATOM     32  CG1 ILE B   3       9.468  98.861  58.549  1.00  0.00     0.002 C 
ATOM     33  CD1 ILE B   3       9.455  97.368  58.167  1.00  0.00     0.005 C 
ENDBRANCH  30  32
ENDBRANCH   6  30
ENDBRANCH   4   6
ENDBRANCH   1   2
BRANCH   1  34
ATOM     34  CB  GLU B   4      14.086  96.166  61.564  1.00  0.00     0.045 C 
BRANCH  34  35
ATOM     35  CG  GLU B   4      14.207  95.963  63.065  1.00  0.00     0.116 C 
BRANCH  35  36
ATOM     36  CD  GLU B   4      15.153  94.834  63.430  1.00  0.00     0.172 C 
ATOM     37  OE2 GLU B   4      16.351  95.111  63.647  1.00  0.00    -0.648 OA
ATOM     38  OE1 GLU B   4      14.694  93.675  63.498  1.00  0.00    -0.648 OA
ENDBRANCH  35  36
ENDBRANCH  34  35
ENDBRANCH   1  34
BRANCH   1  39
ATOM     39  C   GLU B   4      11.752  95.510  62.167  1.00  0.00     0.241 C 
ATOM     40  N   THR B   5      11.751  94.199  62.391  1.00  7.70    -0.344 N 
ATOM     41  H   THR B   5      12.316  93.622  61.836  1.00  0.23     0.163 HD
ATOM     42  O   GLU B   4      11.073  96.303  62.820  1.00  0.00    -0.271 OA
BRANCH  40  43
ATOM     43  CA  THR B   5      10.934  93.595  63.439  1.00  7.88     0.205 C 
BRANCH  43  44
ATOM     44  CB  THR B   5      10.792  94.556  64.621  1.00  4.05     0.146 C 
ATOM     45  CG2 THR B   5       9.558  94.296  65.458  1.00  3.72     0.042 C 
BRANCH  44  46
ATOM     46  OG1 THR B   5      11.917  94.466  65.477  1.00  7.31    -0.393 OA
ATOM     47  HG1 THR B   5      11.627  94.250  66.366  1.00  0.23     0.210 HD
ENDBRANCH  44  46
ENDBRANCH  43  44
BRANCH  43  48
ATOM     48  C   THR B   5       9.555  93.226  62.901  1.00  7.05     0.243 C 
ATOM     49  N   TRP B   6       8.959  92.186  63.473  1.00  0.00    -0.346 N 
ATOM     50  H   TRP B   6       9.416  91.712  64.198  1.00  0.23     0.163 HD
ATOM     51  O   THR B   5       9.044  93.869  61.984  1.00  6.06    -0.271 OA
BRANCH  49  52
ATOM     52  CA  TRP B   6       7.642  91.731  63.046  1.00  0.00     0.181 C 
BRANCH  52  53
ATOM     53  CB  TRP B   6       7.697  90.256  62.648  1.00  0.00     0.075 C 
BRANCH  53  54
ATOM     54  CG  TRP B   6       7.024  89.979  61.338  1.00  0.00    -0.028 A 
ATOM     55  CD2 TRP B   6       7.116  88.776  60.565  1.00  0.00    -0.002 A 
ATOM     56  CE2 TRP B   6       6.319  88.956  59.419  1.00  0.00     0.042 A 
ATOM     57  CE3 TRP B   6       7.794  87.566  60.732  1.00  0.00     0.014 A 
ATOM     58  CZ2 TRP B   6       6.183  87.969  58.446  1.00  0.00     0.030 A 
ATOM     59  NE1 TRP B   6       5.769  90.210  59.491  1.00  0.00    -0.365 N 
ATOM     60  CH2 TRP B   6       6.859  86.794  58.633  1.00  0.00     0.002 A 
ATOM     61  CZ3 TRP B   6       7.658  86.587  59.764  1.00  0.00     0.001 A 
ATOM     62  HE1 TRP B   6       5.168  90.608  58.827  1.00  0.23     0.165 HD
ATOM     63  CD1 TRP B   6       6.198  90.817  60.647  1.00  0.00     0.096 A 
ENDBRANCH  53  54
ENDBRANCH  52  53
BRANCH  52  64
ATOM     64  C   TRP B   6       6.609  91.940  64.149  1.00  0.00     0.241 C 
ATOM     65  N   VAL B   7       6.409  90.909  64.965  1.00  6.11    -0.344 N 
ATOM     66  H   VAL B   7       6.920  90.085  64.826  1.00  0.23     0.163 HD
ATOM     67  O   TRP B   6       6.006  93.008  64.255  1.00  0.00    -0.271 OA
BRANCH  65  68
ATOM     68  CA  VAL B   7       5.448  90.973  66.059  1.00  5.65     0.189 C 
BRANCH  68  69
ATOM     69  CB  VAL B   7       4.213  90.098  65.768  1.00  1.15     0.010 C 
ATOM     70  CG1 VAL B   7       3.047  90.957  65.301  1.00  4.96     0.012 C 
ATOM     71  CG2 VAL B   7       4.543  89.029  64.737  1.00  9.83     0.012 C 
ENDBRANCH  68  69
BRANCH  68  72
ATOM     72  C   VAL B   7       6.079  90.525  67.374  1.00  4.44     0.197 C 
ATOM     73  OXT VAL B   7       7.299  90.265  67.386  1.00  0.00    -0.646 OA
ATOM     74  O   VAL B   7       5.345  90.441  68.380  1.00  0.00    -0.646 OA
ENDBRANCH  68  72
ENDBRANCH  65  68
ENDBRANCH  52  64
ENDBRANCH  49  52
ENDBRANCH  43  48
ENDBRANCH  40  43
ENDBRANCH   1  39
TORSDOF 31
ENDMDL
MODEL 4
REMARK VINA RESULT:      -6.3      1.700      2.435
REMARK  31 active torsions:
REMARK  status: ('A' for Active; 'I' for Inactive)
REMARK    1  A    between atoms: N_1  and  CA_2 
REMARK    2  A    between atoms: CA_2  and  C_3 
REMARK    3  A    between atoms: CA_2  and  CB_5 
REMARK       I    between atoms: C_3  and  N_14 
REMARK    4  A    between atoms: CB_5  and  CG_6 
REMARK    5  A    between atoms: CG_6  and  CD_7 
REMARK    6  A    between atoms: CD_7  and  CE_8 
REMARK    7  A    between atoms: CE_8  and  NZ_9 
REMARK    8  A    between atoms: N_14  and  CA_15 
REMARK    9  A    between atoms: CA_15  and  C_16 
REMARK   10  A    between atoms: CA_15  and  CB_18 
REMARK       I    between atoms: C_16  and  N_22 
REMARK   11  A    between atoms: CB_18  and  SG_19 
REMARK   12  A    between atoms: N_22  and  CA_23 
REMARK   13  A    between atoms: CA_23  and  CB_26 
REMARK   14  A    between atoms: CA_23  and  C_24 
REMARK       I    between atoms: C_24  and  N_37 
REMARK   15  A    between atoms: CB_26  and  CG1_27 
REMARK   16  A    between atoms: CA_31  and  N_37 
REMARK   17  A    between atoms: CA_31  and  CB_33 
REMARK   18  A    between atoms: CA_31  and  C_32 
REMARK       I    between atoms: C_32  and  N_47 
REMARK   19  A    between atoms: CB_33  and  CG_34 
REMARK   20  A    between atoms: CG_34  and  CD_35 
REMARK   21  A    between atoms: CA_41  and  N_47 
REMARK   22  A    between atoms: CA_41  and  CB_43 
REMARK   23  A    between atoms: CA_41  and  C_42 
REMARK       I    between atoms: C_42  and  N_63 
REMARK   24  A    between atoms: CB_43  and  OG1_49 
REMARK   25  A    between atoms: CA_50  and  CB_52 
REMARK   26  A    between atoms: CA_50  and  N_63 
REMARK   27  A    between atoms: CA_50  and  C_51 
REMARK       I    between atoms: C_51  and  N_72 
REMARK   28  A    between atoms: CB_52  and  CG_53 
REMARK   29  A    between atoms: CA_66  and  N_72 
REMARK   30  A    between atoms: CA_66  and  CB_68 
REMARK   31  A    between atoms: CA_66  and  C_67 
ROOT
ATOM      1  CA  GLU B   4      12.825  95.617  61.682  1.00  0.00     0.177 C 
ENDROOT
BRANCH   1   2
ATOM      2  N   GLU B   4      12.310  96.901  61.211  1.00  0.00    -0.346 N 
ATOM      3  H   GLU B   4      11.752  97.441  61.809  1.00  0.23     0.163 HD
ATOM      4  C   ILE B   3      12.561  97.338  59.981  1.00  0.00     0.241 C 
ATOM      5  O   ILE B   3      13.272  96.720  59.188  1.00  0.00    -0.271 OA
BRANCH   4   6
ATOM      6  CA  ILE B   3      11.985  98.686  59.620  1.00  0.00     0.180 C 
BRANCH   6   7
ATOM      7  N   ILE B   3      12.211  98.991  58.211  1.00  0.00    -0.346 N 
ATOM      8  C   CYS B   2      12.091 100.244  57.725  1.00  0.00     0.241 C 
ATOM      9  O   CYS B   2      11.825 101.207  58.439  1.00  0.00    -0.271 OA
ATOM     10  H   ILE B   3      12.454  98.271  57.604  1.00  0.00     0.163 HD
BRANCH   8  11
ATOM     11  CA  CYS B   2      12.361 100.401  56.246  1.00  0.00     0.185 C 
BRANCH  11  12
ATOM     12  N   CYS B   2      13.718 100.889  56.012  1.00  0.00    -0.345 N 
ATOM     13  H   CYS B   2      13.847 101.797  55.658  1.00  0.00     0.163 HD
ATOM     14  C   LYS B   1      14.787 100.130  56.267  1.00  0.00     0.254 C 
ATOM     15  O   LYS B   1      14.689  99.001  56.760  1.00  0.00    -0.271 OA
BRANCH  14  16
ATOM     16  CA  LYS B   1      16.132 100.747  55.962  1.00  0.00     0.350 C 
BRANCH  16  17
ATOM     17  N   LYS B   1      17.174  99.726  55.898  1.00  0.00     0.312 N 
ATOM     18  H   LYS B   1      18.059 100.144  55.473  1.00  0.00     0.359 HD
ENDBRANCH  16  17
BRANCH  16  19
ATOM     19  CB  LYS B   1      16.092 101.531  54.622  1.00  0.00     0.048 C 
BRANCH  19  20
ATOM     20  CG  LYS B   1      16.865 100.830  53.476  1.00  0.00     0.004 C 
BRANCH  20  21
ATOM     21  CD  LYS B   1      16.712 101.487  52.101  1.00  0.00     0.027 C 
BRANCH  21  22
ATOM     22  CE  LYS B   1      16.791 100.407  51.013  1.00  0.00     0.229 C 
BRANCH  22  23
ATOM     23  NZ  LYS B   1      15.797 100.694  49.965  1.00  0.00    -0.079 N 
ATOM     24  HZ3 LYS B   1      16.310 100.757  49.096  1.00  0.00     0.274 HD
ATOM     25  HZ2 LYS B   1      15.295 101.567  50.155  1.00  0.00     0.274 HD
ATOM     26  HZ1 LYS B   1      15.084  99.956  49.929  1.00  0.00     0.274 HD
ENDBRANCH  22  23
ENDBRANCH  21  22
ENDBRANCH  20  21
ENDBRANCH  19  20
ENDBRANCH  16  19
ENDBRANCH  14  16
ENDBRANCH  11  12
BRANCH  11  27
ATOM     27  CB  CYS B   2      12.174  99.083  55.470  1.00  0.00     0.105 C 
BRANCH  27  28
ATOM     28  SG  CYS B   2      12.178  99.384  53.688  1.00  0.00    -0.180 SA
ATOM     29  HG  CYS B   2      11.808 100.661  53.741  1.00  0.00     0.101 HD
ENDBRANCH  27  28
ENDBRANCH  11  27
ENDBRANCH   8  11
ENDBRANCH   6   7
BRANCH   6  30
ATOM     30  CB  ILE B   3      10.450  98.789  59.995  1.00  0.00     0.013 C 
ATOM     31  CG2 ILE B   3      10.090 100.129  60.706  1.00  0.00     0.012 C 
BRANCH  30  32
ATOM     32  CG1 ILE B   3       9.471  98.598  58.792  1.00  0.00     0.002 C 
ATOM     33  CD1 ILE B   3       9.643  97.294  57.986  1.00  0.00     0.005 C 
ENDBRANCH  30  32
ENDBRANCH   6  30
ENDBRANCH   4   6
ENDBRANCH   1   2
BRANCH   1  34
ATOM     34  CB  GLU B   4      14.098  95.819  62.505  1.00  0.00     0.045 C 
BRANCH  34  35
ATOM     35  CG  GLU B   4      15.215  94.857  62.136  1.00  0.00     0.116 C 
BRANCH  35  36
ATOM     36  CD  GLU B   4      15.068  93.503  62.804  1.00  0.00     0.172 C 
ATOM     37  OE2 GLU B   4      15.486  93.368  63.973  1.00  0.00    -0.648 OA
ATOM     38  OE1 GLU B   4      14.534  92.578  62.157  1.00  0.00    -0.648 OA
ENDBRANCH  35  36
ENDBRANCH  34  35
ENDBRANCH   1  34
BRANCH   1  39
ATOM     39  C   GLU B   4      11.780  94.886  62.520  1.00  0.00     0.241 C 
ATOM     40  N   THR B   5      12.225  94.295  63.626  1.00  7.70    -0.344 N 
ATOM     41  H   THR B   5      13.179  94.354  63.845  1.00  0.23     0.163 HD
ATOM     42  O   GLU B   4      10.599  94.862  62.174  1.00  0.00    -0.271 OA
BRANCH  40  43
ATOM     43  CA  THR B   5      11.334  93.564  64.522  1.00  7.88     0.205 C 
BRANCH  43  44
ATOM     44  CB  THR B   5      10.001  94.302  64.663  1.00  4.05     0.146 C 
ATOM     45  CG2 THR B   5       8.999  93.565  65.524  1.00  3.72     0.042 C 
BRANCH  44  46
ATOM     46  OG1 THR B   5      10.197  95.584  65.234  1.00  7.31    -0.393 OA
ATOM     47  HG1 THR B   5      10.916  96.029  64.781  1.00  0.23     0.210 HD
ENDBRANCH  44  46
ENDBRANCH  43  44
BRANCH  43  48
ATOM     48  C   THR B   5      11.093  92.150  64.005  1.00  7.05     0.243 C 
ATOM     49  N   TRP B   6       9.832  91.733  63.997  1.00  0.00    -0.346 N 
ATOM     50  H   TRP B   6       9.127  92.335  64.314  1.00  0.23     0.163 HD
ATOM     51  O   THR B   5      12.032  91.450  63.624  1.00  6.06    -0.271 OA
BRANCH  49  52
ATOM     52  CA  TRP B   6       9.471  90.400  63.530  1.00  0.00     0.181 C 
BRANCH  52  53
ATOM     53  CB  TRP B   6       9.604  89.388  64.669  1.00  0.00     0.075 C 
BRANCH  53  54
ATOM     54  CG  TRP B   6       9.103  89.914  65.979  1.00  0.00    -0.028 A 
ATOM     55  CD2 TRP B   6       7.762  89.835  66.478  1.00  0.00    -0.002 A 
ATOM     56  CE2 TRP B   6       7.752  90.450  67.744  1.00  0.00     0.042 A 
ATOM     57  CE3 TRP B   6       6.571  89.306  65.976  1.00  0.00     0.014 A 
ATOM     58  CZ2 TRP B   6       6.596  90.548  68.514  1.00  0.00     0.030 A 
ATOM     59  NE1 TRP B   6       9.027  90.883  68.003  1.00  0.00    -0.365 N 
ATOM     60  CH2 TRP B   6       5.443  90.021  67.999  1.00  0.00     0.002 A 
ATOM     61  CZ3 TRP B   6       5.423  89.404  66.743  1.00  0.00     0.001 A 
ATOM     62  HE1 TRP B   6       9.317  91.348  68.816  1.00  0.23     0.165 HD
ATOM     63  CD1 TRP B   6       9.831  90.557  66.938  1.00  0.00     0.096 A 
ENDBRANCH  53  54
ENDBRANCH  52  53
BRANCH  52  64
ATOM     64  C   TRP B   6       8.051  90.383  62.974  1.00  0.00     0.241 C 
ATOM     65  N   VAL B   7       7.482  91.570  62.788  1.00  6.11    -0.344 N 
ATOM     66  H   VAL B   7       7.986  92.381  63.009  1.00  0.23     0.163 HD
ATOM     67  O   TRP B   6       7.484  89.319  62.724  1.00  0.00    -0.271 OA
BRANCH  65  68
ATOM     68  CA  VAL B   7       6.127  91.697  62.266  1.00  5.65     0.189 C 
BRANCH  68  69
ATOM     69  CB  VAL B   7       5.149  92.165  63.361  1.00  1.15     0.010 C 
ATOM     70  CG1 VAL B   7       4.157  91.061  63.697  1.00  4.96     0.012 C 
ATOM     71  CG2 VAL B   7       5.906  92.607  64.605  1.00  9.83     0.012 C 
ENDBRANCH  68  69
BRANCH  68  72
ATOM     72  C   VAL B   7       6.076  92.679  61.099  1.00  4.44     0.197 C 
ATOM     73  OXT VAL B   7       5.482  92.331  60.058  1.00  0.00    -0.646 OA
ATOM     74  O   VAL B   7       6.631  93.789  61.238  1.00  0.00    -0.646 OA
ENDBRANCH  68  72
ENDBRANCH  65  68
ENDBRANCH  52  64
ENDBRANCH  49  52
ENDBRANCH  43  48
ENDBRANCH  40  43
ENDBRANCH   1  39
TORSDOF 31
ENDMDL
MODEL 5
REMARK VINA RESULT:      -5.8      2.537      4.015
REMARK  31 active torsions:
REMARK  status: ('A' for Active; 'I' for Inactive)
REMARK    1  A    between atoms: N_1  and  CA_2 
REMARK    2  A    between atoms: CA_2  and  C_3 
REMARK    3  A    between atoms: CA_2  and  CB_5 
REMARK       I    between atoms: C_3  and  N_14 
REMARK    4  A    between atoms: CB_5  and  CG_6 
REMARK    5  A    between atoms: CG_6  and  CD_7 
REMARK    6  A    between atoms: CD_7  and  CE_8 
REMARK    7  A    between atoms: CE_8  and  NZ_9 
REMARK    8  A    between atoms: N_14  and  CA_15 
REMARK    9  A    between atoms: CA_15  and  C_16 
REMARK   10  A    between atoms: CA_15  and  CB_18 
REMARK       I    between atoms: C_16  and  N_22 
REMARK   11  A    between atoms: CB_18  and  SG_19 
REMARK   12  A    between atoms: N_22  and  CA_23 
REMARK   13  A    between atoms: CA_23  and  CB_26 
REMARK   14  A    between atoms: CA_23  and  C_24 
REMARK       I    between atoms: C_24  and  N_37 
REMARK   15  A    between atoms: CB_26  and  CG1_27 
REMARK   16  A    between atoms: CA_31  and  N_37 
REMARK   17  A    between atoms: CA_31  and  CB_33 
REMARK   18  A    between atoms: CA_31  and  C_32 
REMARK       I    between atoms: C_32  and  N_47 
REMARK   19  A    between atoms: CB_33  and  CG_34 
REMARK   20  A    between atoms: CG_34  and  CD_35 
REMARK   21  A    between atoms: CA_41  and  N_47 
REMARK   22  A    between atoms: CA_41  and  CB_43 
REMARK   23  A    between atoms: CA_41  and  C_42 
REMARK       I    between atoms: C_42  and  N_63 
REMARK   24  A    between atoms: CB_43  and  OG1_49 
REMARK   25  A    between atoms: CA_50  and  CB_52 
REMARK   26  A    between atoms: CA_50  and  N_63 
REMARK   27  A    between atoms: CA_50  and  C_51 
REMARK       I    between atoms: C_51  and  N_72 
REMARK   28  A    between atoms: CB_52  and  CG_53 
REMARK   29  A    between atoms: CA_66  and  N_72 
REMARK   30  A    between atoms: CA_66  and  CB_68 
REMARK   31  A    between atoms: CA_66  and  C_67 
ROOT
ATOM      1  CA  GLU B   4      13.385  95.563  61.845  1.00  0.00     0.177 C 
ENDROOT
BRANCH   1   2
ATOM      2  N   GLU B   4      12.813  96.822  61.372  1.00  0.00    -0.346 N 
ATOM      3  H   GLU B   4      12.435  97.450  62.022  1.00  0.23     0.163 HD
ATOM      4  C   ILE B   3      12.772  97.121  60.077  1.00  0.00     0.241 C 
ATOM      5  O   ILE B   3      13.249  96.388  59.210  1.00  0.00    -0.271 OA
BRANCH   4   6
ATOM      6  CA  ILE B   3      12.170  98.458  59.718  1.00  0.00     0.180 C 
BRANCH   6   7
ATOM      7  N   ILE B   3      12.483  98.819  58.339  1.00  0.00    -0.346 N 
ATOM      8  C   CYS B   2      12.326 100.078  57.879  1.00  0.00     0.241 C 
ATOM      9  O   CYS B   2      11.949 101.001  58.596  1.00  0.00    -0.271 OA
ATOM     10  H   ILE B   3      12.814  98.134  57.735  1.00  0.00     0.163 HD
BRANCH   8  11
ATOM     11  CA  CYS B   2      12.698 100.297  56.431  1.00  0.00     0.185 C 
BRANCH  11  12
ATOM     12  N   CYS B   2      14.124 100.580  56.294  1.00  0.00    -0.345 N 
ATOM     13  H   CYS B   2      14.693 100.581  57.096  1.00  0.00     0.163 HD
ATOM     14  C   LYS B   1      14.675 100.838  55.105  1.00  0.00     0.254 C 
ATOM     15  O   LYS B   1      14.022 100.799  54.056  1.00  0.00    -0.271 OA
BRANCH  14  16
ATOM     16  CA  LYS B   1      16.157 101.133  55.104  1.00  0.00     0.350 C 
BRANCH  16  17
ATOM     17  N   LYS B   1      16.814 100.513  56.251  1.00  0.00     0.312 N 
ATOM     18  H   LYS B   1      16.076 100.159  56.937  1.00  0.00     0.359 HD
ENDBRANCH  16  17
BRANCH  16  19
ATOM     19  CB  LYS B   1      16.822 100.631  53.794  1.00  0.00     0.048 C 
BRANCH  19  20
ATOM     20  CG  LYS B   1      16.568 101.560  52.580  1.00  0.00     0.004 C 
BRANCH  20  21
ATOM     21  CD  LYS B   1      17.203 101.092  51.267  1.00  0.00     0.027 C 
BRANCH  21  22
ATOM     22  CE  LYS B   1      16.102 100.880  50.219  1.00  0.00     0.229 C 
BRANCH  22  23
ATOM     23  NZ  LYS B   1      14.913 100.302  50.869  1.00  0.00    -0.079 N 
ATOM     24  HZ3 LYS B   1      15.137 100.220  51.851  1.00  0.00     0.274 HD
ATOM     25  HZ2 LYS B   1      14.677  99.387  50.471  1.00  0.00     0.274 HD
ATOM     26  HZ1 LYS B   1      14.091 100.899  50.718  1.00  0.00     0.274 HD
ENDBRANCH  22  23
ENDBRANCH  21  22
ENDBRANCH  20  21
ENDBRANCH  19  20
ENDBRANCH  16  19
ENDBRANCH  14  16
ENDBRANCH  11  12
BRANCH  11  27
ATOM     27  CB  CYS B   2      12.353  99.084  55.545  1.00  0.00     0.105 C 
BRANCH  27  28
ATOM     28  SG  CYS B   2      10.594  99.076  55.129  1.00  0.00    -0.180 SA
ATOM     29  HG  CYS B   2      10.484  97.765  54.928  1.00  0.00     0.101 HD
ENDBRANCH  27  28
ENDBRANCH  11  27
ENDBRANCH   8  11
ENDBRANCH   6   7
BRANCH   6  30
ATOM     30  CB  ILE B   3      10.609  98.490  59.983  1.00  0.00     0.013 C 
ATOM     31  CG2 ILE B   3      10.161  99.739  60.803  1.00  0.00     0.012 C 
BRANCH  30  32
ATOM     32  CG1 ILE B   3       9.727  98.412  58.696  1.00  0.00     0.002 C 
ATOM     33  CD1 ILE B   3       9.598  97.015  58.054  1.00  0.00     0.005 C 
ENDBRANCH  30  32
ENDBRANCH   6  30
ENDBRANCH   4   6
ENDBRANCH   1   2
BRANCH   1  34
ATOM     34  CB  GLU B   4      14.340  95.813  63.013  1.00  0.00     0.045 C 
BRANCH  34  35
ATOM     35  CG  GLU B   4      14.266  97.228  63.562  1.00  0.00     0.116 C 
BRANCH  35  36
ATOM     36  CD  GLU B   4      15.348  97.517  64.585  1.00  0.00     0.172 C 
ATOM     37  OE2 GLU B   4      16.343  96.764  64.626  1.00  0.00    -0.648 OA
ATOM     38  OE1 GLU B   4      15.199  98.496  65.345  1.00  0.00    -0.648 OA
ENDBRANCH  35  36
ENDBRANCH  34  35
ENDBRANCH   1  34
BRANCH   1  39
ATOM     39  C   GLU B   4      12.287  94.595  62.275  1.00  0.00     0.241 C 
ATOM     40  N   THR B   5      12.662  93.602  63.076  1.00  7.70    -0.344 N 
ATOM     41  H   THR B   5      13.603  93.538  63.345  1.00  0.23     0.163 HD
ATOM     42  O   GLU B   4      11.127  94.748  61.892  1.00  0.00    -0.271 OA
BRANCH  40  43
ATOM     43  CA  THR B   5      11.715  92.605  63.566  1.00  7.88     0.205 C 
BRANCH  43  44
ATOM     44  CB  THR B   5      12.445  91.532  64.375  1.00  4.05     0.146 C 
ATOM     45  CG2 THR B   5      13.845  91.938  64.781  1.00  3.72     0.042 C 
BRANCH  44  46
ATOM     46  OG1 THR B   5      11.729  91.221  65.557  1.00  7.31    -0.393 OA
ATOM     47  HG1 THR B   5      12.275  90.679  66.129  1.00  0.23     0.210 HD
ENDBRANCH  44  46
ENDBRANCH  43  44
BRANCH  43  48
ATOM     48  C   THR B   5      10.641  93.263  64.426  1.00  7.05     0.243 C 
ATOM     49  N   TRP B   6       9.455  92.665  64.446  1.00  0.00    -0.346 N 
ATOM     50  H   TRP B   6       9.322  91.847  63.922  1.00  0.23     0.163 HD
ATOM     51  O   THR B   5      10.881  94.293  65.056  1.00  6.06    -0.271 OA
BRANCH  49  52
ATOM     52  CA  TRP B   6       8.344  93.196  65.225  1.00  0.00     0.181 C 
BRANCH  52  53
ATOM     53  CB  TRP B   6       7.170  93.537  64.306  1.00  0.00     0.075 C 
BRANCH  53  54
ATOM     54  CG  TRP B   6       7.028  92.582  63.160  1.00  0.00    -0.028 A 
ATOM     55  CD2 TRP B   6       6.100  92.681  62.073  1.00  0.00    -0.002 A 
ATOM     56  CE2 TRP B   6       6.326  91.575  61.231  1.00  0.00     0.042 A 
ATOM     57  CE3 TRP B   6       5.100  93.595  61.732  1.00  0.00     0.014 A 
ATOM     58  CZ2 TRP B   6       5.589  91.362  60.070  1.00  0.00     0.030 A 
ATOM     59  NE1 TRP B   6       7.345  90.840  61.781  1.00  0.00    -0.365 N 
ATOM     60  CH2 TRP B   6       4.616  92.272  59.759  1.00  0.00     0.002 A 
ATOM     61  CZ3 TRP B   6       4.369  93.381  60.577  1.00  0.00     0.001 A 
ATOM     62  HE1 TRP B   6       7.716  90.013  61.409  1.00  0.23     0.165 HD
ATOM     63  CD1 TRP B   6       7.760  91.452  62.939  1.00  0.00     0.096 A 
ENDBRANCH  53  54
ENDBRANCH  52  53
BRANCH  52  64
ATOM     64  C   TRP B   6       7.903  92.202  66.295  1.00  0.00     0.241 C 
ATOM     65  N   VAL B   7       8.602  91.073  66.366  1.00  6.11    -0.344 N 
ATOM     66  H   VAL B   7       9.348  90.934  65.748  1.00  0.23     0.163 HD
ATOM     67  O   TRP B   6       6.951  92.452  67.034  1.00  0.00    -0.271 OA
BRANCH  65  68
ATOM     68  CA  VAL B   7       8.285  90.037  67.341  1.00  5.65     0.189 C 
BRANCH  68  69
ATOM     69  CB  VAL B   7       7.586  88.837  66.671  1.00  1.15     0.010 C 
ATOM     70  CG1 VAL B   7       6.073  88.987  66.752  1.00  4.96     0.012 C 
ATOM     71  CG2 VAL B   7       8.037  88.691  65.226  1.00  9.83     0.012 C 
ENDBRANCH  68  69
BRANCH  68  72
ATOM     72  C   VAL B   7       9.542  89.548  68.054  1.00  4.44     0.197 C 
ATOM     73  OXT VAL B   7      10.651  89.834  67.560  1.00  0.00    -0.646 OA
ATOM     74  O   VAL B   7       9.403  88.883  69.102  1.00  0.00    -0.646 OA
ENDBRANCH  68  72
ENDBRANCH  65  68
ENDBRANCH  52  64
ENDBRANCH  49  52
ENDBRANCH  43  48
ENDBRANCH  40  43
ENDBRANCH   1  39
TORSDOF 31
ENDMDL
