MODEL 1
REMARK VINA RESULT:      -6.4      0.000      0.000
REMARK  31 active torsions:
REMARK  status: ('A' for Active; 'I' for Inactive)
REMARK    1  A    between atoms: N_1  and  CA_2 
REMARK    2  A    between atoms: CA_2  and  C_3 
REMARK    3  A    between atoms: CA_2  and  CB_5 
REMARK       I    between atoms: C_3  and  N_14 
REMARK    4  A    between atoms: CB_5  and  CG_6 
REMARK    5  A    between atoms: CG_6  and  CD_7 
REMARK    6  A    between atoms: CD_7  and  CE_8 
REMARK    7  A    between atoms: CE_8  and  NZ_9 
REMARK    8  A    between atoms: N_14  and  CA_15 
REMARK    9  A    between atoms: CA_15  and  C_16 
REMARK   10  A    between atoms: CA_15  and  CB_18 
REMARK       I    between atoms: C_16  and  N_22 
REMARK   11  A    between atoms: CB_18  and  SG_19 
REMARK   12  A    between atoms: N_22  and  CA_23 
REMARK   13  A    between atoms: CA_23  and  CB_26 
REMARK   14  A    between atoms: CA_23  and  C_24 
REMARK       I    between atoms: C_24  and  N_36 
REMARK   15  A    between atoms: CB_26  and  OG_27 
REMARK   16  A    between atoms: CA_30  and  N_36 
REMARK   17  A    between atoms: CA_30  and  CB_32 
REMARK   18  A    between atoms: CA_30  and  C_31 
REMARK       I    between atoms: C_31  and  N_46 
REMARK   19  A    between atoms: CB_32  and  CG_33 
REMARK   20  A    between atoms: CG_33  and  CD_34 
REMARK   21  A    between atoms: CA_40  and  N_46 
REMARK   22  A    between atoms: CA_40  and  CB_42 
REMARK   23  A    between atoms: CA_40  and  C_41 
REMARK       I    between atoms: C_41  and  N_62 
REMARK   24  A    between atoms: CB_42  and  OG1_48 
REMARK   25  A    between atoms: CA_49  and  CB_51 
REMARK   26  A    between atoms: CA_49  and  N_62 
REMARK   27  A    between atoms: CA_49  and  C_50 
REMARK       I    between atoms: C_50  and  N_71 
REMARK   28  A    between atoms: CB_51  and  CG_52 
REMARK   29  A    between atoms: CA_65  and  N_71 
REMARK   30  A    between atoms: CA_65  and  CB_67 
REMARK   31  A    between atoms: CA_65  and  C_66 
ROOT
ATOM      1  CA  GLU B   4       3.940  90.095  62.696  1.00  0.00     0.177 C 
ENDROOT
BRANCH   1   2
ATOM      2  N   GLU B   4       4.617  91.384  62.578  1.00  0.00    -0.346 N 
ATOM      3  H   GLU B   4       4.100  92.176  62.322  1.00  0.23     0.163 HD
ATOM      4  C   SER B   3       5.926  91.503  62.794  1.00  0.00     0.243 C 
ATOM      5  O   SER B   3       6.630  90.550  63.131  1.00  0.00    -0.271 OA
BRANCH   4   6
ATOM      6  CA  SER B   3       6.509  92.890  62.655  1.00  0.00     0.200 C 
BRANCH   6   7
ATOM      7  CB  SER B   3       6.749  93.262  61.170  1.00  0.00     0.199 C 
BRANCH   7   8
ATOM      8  OG  SER B   3       6.699  92.128  60.298  1.00  0.00    -0.398 OA
ATOM      9  HG  SER B   3       7.566  91.715  60.312  1.00  0.00     0.209 HD
ENDBRANCH   7   8
ENDBRANCH   6   7
BRANCH   6  10
ATOM     10  N   SER B   3       7.741  93.018  63.428  1.00  0.00    -0.344 N 
ATOM     11  H   SER B   3       8.602  92.943  62.965  1.00  0.00     0.163 HD
ATOM     12  C   CYS B   2       7.735  93.237  64.757  1.00  0.00     0.242 C 
ATOM     13  O   CYS B   2       6.694  93.318  65.403  1.00  0.00    -0.271 OA
BRANCH  12  14
ATOM     14  CA  CYS B   2       9.090  93.334  65.419  1.00  0.00     0.185 C 
BRANCH  14  15
ATOM     15  N   CYS B   2       9.934  92.201  65.050  1.00  0.00    -0.345 N 
ATOM     16  H   CYS B   2      10.618  92.318  64.353  1.00  0.00     0.163 HD
ATOM     17  C   LYS B   1       9.799  91.008  65.636  1.00  0.00     0.254 C 
ATOM     18  O   LYS B   1       8.993  90.815  66.553  1.00  0.00    -0.271 OA
BRANCH  17  19
ATOM     19  CA  LYS B   1      10.721  89.915  65.149  1.00  0.00     0.350 C 
BRANCH  19  20
ATOM     20  CB  LYS B   1      11.545  90.392  63.921  1.00  0.00     0.048 C 
BRANCH  20  21
ATOM     21  CG  LYS B   1      13.077  90.283  64.129  1.00  0.00     0.004 C 
BRANCH  21  22
ATOM     22  CD  LYS B   1      13.612  91.004  65.369  1.00  0.00     0.027 C 
BRANCH  22  23
ATOM     23  CE  LYS B   1      14.495  92.180  64.928  1.00  0.00     0.229 C 
BRANCH  23  24
ATOM     24  NZ  LYS B   1      15.332  91.763  63.789  1.00  0.00    -0.079 N 
ATOM     25  HZ3 LYS B   1      15.583  90.800  63.958  1.00  0.00     0.274 HD
ATOM     26  HZ2 LYS B   1      16.169  92.350  63.707  1.00  0.00     0.274 HD
ATOM     27  HZ1 LYS B   1      14.820  91.870  62.905  1.00  0.00     0.274 HD
ENDBRANCH  23  24
ENDBRANCH  22  23
ENDBRANCH  21  22
ENDBRANCH  20  21
ENDBRANCH  19  20
BRANCH  19  28
ATOM     28  N   LYS B   1       9.969  88.715  64.794  1.00  0.00     0.312 N 
ATOM     29  H   LYS B   1       9.212  88.965  64.084  1.00  0.00     0.359 HD
ENDBRANCH  19  28
ENDBRANCH  17  19
ENDBRANCH  14  15
BRANCH  14  30
ATOM     30  CB  CYS B   2       9.831  94.635  65.056  1.00  0.00     0.105 C 
BRANCH  30  31
ATOM     31  SG  CYS B   2      11.321  94.277  64.097  1.00  0.00    -0.180 SA
ATOM     32  HG  CYS B   2      11.015  95.027  63.041  1.00  0.00     0.101 HD
ENDBRANCH  30  31
ENDBRANCH  14  30
ENDBRANCH  12  14
ENDBRANCH   6  10
ENDBRANCH   4   6
ENDBRANCH   1   2
BRANCH   1  33
ATOM     33  CB  GLU B   4       2.873  90.148  63.791  1.00  0.00     0.045 C 
BRANCH  33  34
ATOM     34  CG  GLU B   4       3.233  89.337  65.025  1.00  0.00     0.116 C 
BRANCH  34  35
ATOM     35  CD  GLU B   4       4.403  89.924  65.792  1.00  0.00     0.172 C 
ATOM     36  OE1 GLU B   4       5.434  89.233  65.920  1.00  0.00    -0.648 OA
ATOM     37  OE2 GLU B   4       4.286  91.074  66.263  1.00  0.00    -0.648 OA
ENDBRANCH  34  35
ENDBRANCH  33  34
ENDBRANCH   1  33
BRANCH   1  38
ATOM     38  C   GLU B   4       3.298  89.695  61.371  1.00  0.00     0.241 C 
ATOM     39  O   GLU B   4       3.967  89.633  60.339  1.00  0.00    -0.271 OA
ATOM     40  N   THR B   5       1.995  89.430  61.407  1.00  7.70    -0.344 N 
ATOM     41  H   THR B   5       1.519  89.500  62.262  1.00  0.23     0.163 HD
BRANCH  40  42
ATOM     42  CA  THR B   5       1.253  89.039  60.213  1.00  7.88     0.205 C 
BRANCH  42  43
ATOM     43  CB  THR B   5       1.747  89.827  58.999  1.00  4.05     0.146 C 
ATOM     44  CG2 THR B   5       1.685  89.039  57.709  1.00  3.72     0.042 C 
BRANCH  43  45
ATOM     45  OG1 THR B   5       0.980  91.004  58.820  1.00  7.31    -0.393 OA
ATOM     46  HG1 THR B   5       0.427  91.146  59.591  1.00  0.23     0.210 HD
ENDBRANCH  43  45
ENDBRANCH  42  43
BRANCH  42  47
ATOM     47  C   THR B   5       1.398  87.542  59.955  1.00  7.05     0.243 C 
ATOM     48  N   TRP B   6       2.271  86.896  60.720  1.00  0.00    -0.346 N 
ATOM     49  H   TRP B   6       2.772  87.393  61.400  1.00  0.23     0.163 HD
ATOM     50  O   THR B   5       0.734  86.986  59.081  1.00  6.06    -0.271 OA
BRANCH  48  51
ATOM     51  CA  TRP B   6       2.505  85.466  60.570  1.00  0.00     0.181 C 
BRANCH  51  52
ATOM     52  CB  TRP B   6       3.979  85.142  60.821  1.00  0.00     0.075 C 
BRANCH  52  53
ATOM     53  CG  TRP B   6       4.900  85.843  59.871  1.00  0.00    -0.028 A 
ATOM     54  CD2 TRP B   6       5.990  86.707  60.215  1.00  0.00    -0.002 A 
ATOM     55  CE2 TRP B   6       6.581  87.132  59.009  1.00  0.00     0.042 A 
ATOM     56  CE3 TRP B   6       6.522  87.163  61.424  1.00  0.00     0.014 A 
ATOM     57  CZ2 TRP B   6       7.677  87.989  58.981  1.00  0.00     0.030 A 
ATOM     58  NE1 TRP B   6       5.883  86.553  57.981  1.00  0.00    -0.365 N 
ATOM     59  CH2 TRP B   6       8.178  88.421  60.179  1.00  0.00     0.002 A 
ATOM     60  CZ3 TRP B   6       7.612  88.015  61.393  1.00  0.00     0.001 A 
ATOM     61  HE1 TRP B   6       6.071  86.671  57.027  1.00  0.23     0.165 HD
ATOM     62  CD1 TRP B   6       4.875  85.781  58.508  1.00  0.00     0.096 A 
ENDBRANCH  52  53
ENDBRANCH  51  52
BRANCH  51  63
ATOM     63  C   TRP B   6       1.622  84.666  61.523  1.00  0.00     0.241 C 
ATOM     64  N   VAL B   7       2.237  84.107  62.560  1.00  6.11    -0.344 N 
ATOM     65  H   VAL B   7       3.203  84.231  62.665  1.00  0.23     0.163 HD
ATOM     66  O   TRP B   6       0.412  84.556  61.320  1.00  0.00    -0.271 OA
BRANCH  64  67
ATOM     67  CA  VAL B   7       1.512  83.314  63.545  1.00  5.65     0.189 C 
BRANCH  67  68
ATOM     68  CB  VAL B   7       2.333  82.086  63.986  1.00  1.15     0.010 C 
ATOM     69  CG1 VAL B   7       1.641  80.800  63.558  1.00  4.96     0.012 C 
ATOM     70  CG2 VAL B   7       3.744  82.153  63.422  1.00  9.83     0.012 C 
ENDBRANCH  67  68
BRANCH  67  71
ATOM     71  C   VAL B   7       1.162  84.148  64.774  1.00  4.44     0.197 C 
ATOM     72  OXT VAL B   7      -0.043  84.323  65.047  1.00  0.00    -0.646 OA
ATOM     73  O   VAL B   7       2.099  84.616  65.454  1.00  0.00    -0.646 OA
ENDBRANCH  67  71
ENDBRANCH  64  67
ENDBRANCH  51  63
ENDBRANCH  48  51
ENDBRANCH  42  47
ENDBRANCH  40  42
ENDBRANCH   1  38
TORSDOF 31
ENDMDL
MODEL 2
REMARK VINA RESULT:      -6.1      1.672      2.619
REMARK  31 active torsions:
REMARK  status: ('A' for Active; 'I' for Inactive)
REMARK    1  A    between atoms: N_1  and  CA_2 
REMARK    2  A    between atoms: CA_2  and  C_3 
REMARK    3  A    between atoms: CA_2  and  CB_5 
REMARK       I    between atoms: C_3  and  N_14 
REMARK    4  A    between atoms: CB_5  and  CG_6 
REMARK    5  A    between atoms: CG_6  and  CD_7 
REMARK    6  A    between atoms: CD_7  and  CE_8 
REMARK    7  A    between atoms: CE_8  and  NZ_9 
REMARK    8  A    between atoms: N_14  and  CA_15 
REMARK    9  A    between atoms: CA_15  and  C_16 
REMARK   10  A    between atoms: CA_15  and  CB_18 
REMARK       I    between atoms: C_16  and  N_22 
REMARK   11  A    between atoms: CB_18  and  SG_19 
REMARK   12  A    between atoms: N_22  and  CA_23 
REMARK   13  A    between atoms: CA_23  and  CB_26 
REMARK   14  A    between atoms: CA_23  and  C_24 
REMARK       I    between atoms: C_24  and  N_36 
REMARK   15  A    between atoms: CB_26  and  OG_27 
REMARK   16  A    between atoms: CA_30  and  N_36 
REMARK   17  A    between atoms: CA_30  and  CB_32 
REMARK   18  A    between atoms: CA_30  and  C_31 
REMARK       I    between atoms: C_31  and  N_46 
REMARK   19  A    between atoms: CB_32  and  CG_33 
REMARK   20  A    between atoms: CG_33  and  CD_34 
REMARK   21  A    between atoms: CA_40  and  N_46 
REMARK   22  A    between atoms: CA_40  and  CB_42 
REMARK   23  A    between atoms: CA_40  and  C_41 
REMARK       I    between atoms: C_41  and  N_62 
REMARK   24  A    between atoms: CB_42  and  OG1_48 
REMARK   25  A    between atoms: CA_49  and  CB_51 
REMARK   26  A    between atoms: CA_49  and  N_62 
REMARK   27  A    between atoms: CA_49  and  C_50 
REMARK       I    between atoms: C_50  and  N_71 
REMARK   28  A    between atoms: CB_51  and  CG_52 
REMARK   29  A    between atoms: CA_65  and  N_71 
REMARK   30  A    between atoms: CA_65  and  CB_67 
REMARK   31  A    between atoms: CA_65  and  C_66 
ROOT
ATOM      1  CA  GLU B   4       3.761  90.010  62.745  1.00  0.00     0.177 C 
ENDROOT
BRANCH   1   2
ATOM      2  N   GLU B   4       4.416  91.315  62.703  1.00  0.00    -0.346 N 
ATOM      3  H   GLU B   4       3.982  92.055  62.230  1.00  0.23     0.163 HD
ATOM      4  C   SER B   3       5.599  91.516  63.280  1.00  0.00     0.243 C 
ATOM      5  O   SER B   3       6.192  90.633  63.902  1.00  0.00    -0.271 OA
BRANCH   4   6
ATOM      6  CA  SER B   3       6.169  92.912  63.182  1.00  0.00     0.200 C 
BRANCH   6   7
ATOM      7  CB  SER B   3       6.761  93.189  61.778  1.00  0.00     0.199 C 
BRANCH   7   8
ATOM      8  OG  SER B   3       6.877  92.007  60.980  1.00  0.00    -0.398 OA
ATOM      9  HG  SER B   3       7.811  91.875  60.794  1.00  0.00     0.209 HD
ENDBRANCH   7   8
ENDBRANCH   6   7
BRANCH   6  10
ATOM     10  N   SER B   3       7.167  93.144  64.223  1.00  0.00    -0.344 N 
ATOM     11  H   SER B   3       6.875  93.491  65.091  1.00  0.00     0.163 HD
ATOM     12  C   CYS B   2       8.476  92.895  64.029  1.00  0.00     0.242 C 
ATOM     13  O   CYS B   2       8.913  92.481  62.959  1.00  0.00    -0.271 OA
BRANCH  12  14
ATOM     14  CA  CYS B   2       9.388  93.197  65.196  1.00  0.00     0.185 C 
BRANCH  14  15
ATOM     15  N   CYS B   2       9.954  91.970  65.748  1.00  0.00    -0.345 N 
ATOM     16  H   CYS B   2      10.886  91.735  65.540  1.00  0.00     0.163 HD
ATOM     17  C   LYS B   1       9.236  91.159  66.530  1.00  0.00     0.254 C 
ATOM     18  O   LYS B   1       8.078  91.428  66.868  1.00  0.00    -0.271 OA
BRANCH  17  19
ATOM     19  CA  LYS B   1       9.935  89.912  67.020  1.00  0.00     0.350 C 
BRANCH  19  20
ATOM     20  CB  LYS B   1       9.541  89.597  68.489  1.00  0.00     0.048 C 
BRANCH  20  21
ATOM     21  CG  LYS B   1      10.067  88.228  68.987  1.00  0.00     0.004 C 
BRANCH  21  22
ATOM     22  CD  LYS B   1       9.514  87.013  68.237  1.00  0.00     0.027 C 
BRANCH  22  23
ATOM     23  CE  LYS B   1       7.986  87.125  68.150  1.00  0.00     0.229 C 
BRANCH  23  24
ATOM     24  NZ  LYS B   1       7.373  86.272  69.183  1.00  0.00    -0.079 N 
ATOM     25  HZ3 LYS B   1       6.428  86.088  68.875  1.00  0.00     0.274 HD
ATOM     26  HZ2 LYS B   1       7.374  86.734  70.098  1.00  0.00     0.274 HD
ATOM     27  HZ1 LYS B   1       7.908  85.404  69.301  1.00  0.00     0.274 HD
ENDBRANCH  23  24
ENDBRANCH  22  23
ENDBRANCH  21  22
ENDBRANCH  20  21
ENDBRANCH  19  20
BRANCH  19  28
ATOM     28  N   LYS B   1      11.385  90.054  66.925  1.00  0.00     0.312 N 
ATOM     29  H   LYS B   1      11.816  89.123  66.632  1.00  0.00     0.359 HD
ENDBRANCH  19  28
ENDBRANCH  17  19
ENDBRANCH  14  15
BRANCH  14  30
ATOM     30  CB  CYS B   2      10.544  94.140  64.810  1.00  0.00     0.105 C 
BRANCH  30  31
ATOM     31  SG  CYS B   2      12.120  93.255  64.815  1.00  0.00    -0.180 SA
ATOM     32  HG  CYS B   2      12.286  93.218  63.495  1.00  0.00     0.101 HD
ENDBRANCH  30  31
ENDBRANCH  14  30
ENDBRANCH  12  14
ENDBRANCH   6  10
ENDBRANCH   4   6
ENDBRANCH   1   2
BRANCH   1  33
ATOM     33  CB  GLU B   4       2.596  90.025  63.736  1.00  0.00     0.045 C 
BRANCH  33  34
ATOM     34  CG  GLU B   4       2.704  88.958  64.812  1.00  0.00     0.116 C 
BRANCH  34  35
ATOM     35  CD  GLU B   4       1.660  87.868  64.665  1.00  0.00     0.172 C 
ATOM     36  OE1 GLU B   4       1.454  87.394  63.529  1.00  0.00    -0.648 OA
ATOM     37  OE2 GLU B   4       1.050  87.489  65.686  1.00  0.00    -0.648 OA
ENDBRANCH  34  35
ENDBRANCH  33  34
ENDBRANCH   1  33
BRANCH   1  38
ATOM     38  C   GLU B   4       3.254  89.612  61.361  1.00  0.00     0.241 C 
ATOM     39  O   GLU B   4       4.023  89.557  60.401  1.00  0.00    -0.271 OA
ATOM     40  N   THR B   5       1.956  89.341  61.268  1.00  7.70    -0.344 N 
ATOM     41  H   THR B   5       1.398  89.406  62.072  1.00  0.23     0.163 HD
BRANCH  40  42
ATOM     42  CA  THR B   5       1.337  88.951  60.005  1.00  7.88     0.205 C 
BRANCH  42  43
ATOM     43  CB  THR B   5       1.982  89.707  58.843  1.00  4.05     0.146 C 
ATOM     44  CG2 THR B   5       1.601  89.156  57.486  1.00  3.72     0.042 C 
BRANCH  43  45
ATOM     45  OG1 THR B   5       1.612  91.075  58.868  1.00  7.31    -0.393 OA
ATOM     46  HG1 THR B   5       0.962  91.218  59.559  1.00  0.23     0.210 HD
ENDBRANCH  43  45
ENDBRANCH  42  43
BRANCH  42  47
ATOM     47  C   THR B   5       1.467  87.448  59.784  1.00  7.05     0.243 C 
ATOM     48  N   TRP B   6       2.280  86.800  60.611  1.00  0.00    -0.346 N 
ATOM     49  H   TRP B   6       2.750  87.300  61.310  1.00  0.23     0.163 HD
ATOM     50  O   THR B   5       0.846  86.888  58.881  1.00  6.06    -0.271 OA
BRANCH  48  51
ATOM     51  CA  TRP B   6       2.494  85.363  60.501  1.00  0.00     0.181 C 
BRANCH  51  52
ATOM     52  CB  TRP B   6       3.958  85.023  60.785  1.00  0.00     0.075 C 
BRANCH  52  53
ATOM     53  CG  TRP B   6       4.915  85.831  59.963  1.00  0.00    -0.028 A 
ATOM     54  CD2 TRP B   6       5.901  86.749  60.451  1.00  0.00    -0.002 A 
ATOM     55  CE2 TRP B   6       6.574  87.272  59.331  1.00  0.00     0.042 A 
ATOM     56  CE3 TRP B   6       6.278  87.179  61.726  1.00  0.00     0.014 A 
ATOM     57  CZ2 TRP B   6       7.603  88.203  59.449  1.00  0.00     0.030 A 
ATOM     58  NE1 TRP B   6       6.023  86.699  58.214  1.00  0.00    -0.365 N 
ATOM     59  CH2 TRP B   6       7.952  88.607  60.709  1.00  0.00     0.002 A 
ATOM     60  CZ3 TRP B   6       7.301  88.104  61.841  1.00  0.00     0.001 A 
ATOM     61  HE1 TRP B   6       6.294  86.877  57.289  1.00  0.23     0.165 HD
ATOM     62  CD1 TRP B   6       5.027  85.835  58.603  1.00  0.00     0.096 A 
ENDBRANCH  52  53
ENDBRANCH  51  52
BRANCH  51  63
ATOM     63  C   TRP B   6       1.583  84.601  61.458  1.00  0.00     0.241 C 
ATOM     64  N   VAL B   7       2.191  83.895  62.407  1.00  6.11    -0.344 N 
ATOM     65  H   VAL B   7       3.169  83.895  62.448  1.00  0.23     0.163 HD
ATOM     66  O   TRP B   6       0.358  84.650  61.337  1.00  0.00    -0.271 OA
BRANCH  64  67
ATOM     67  CA  VAL B   7       1.439  83.119  63.384  1.00  5.65     0.189 C 
BRANCH  67  68
ATOM     68  CB  VAL B   7       2.201  81.841  63.787  1.00  1.15     0.010 C 
ATOM     69  CG1 VAL B   7       1.743  80.659  62.945  1.00  4.96     0.012 C 
ATOM     70  CG2 VAL B   7       3.702  82.046  63.656  1.00  9.83     0.012 C 
ENDBRANCH  67  68
BRANCH  67  71
ATOM     71  C   VAL B   7       1.150  83.942  64.636  1.00  4.44     0.197 C 
ATOM     72  OXT VAL B   7      -0.041  84.145  64.949  1.00  0.00    -0.646 OA
ATOM     73  O   VAL B   7       2.119  84.375  65.294  1.00  0.00    -0.646 OA
ENDBRANCH  67  71
ENDBRANCH  64  67
ENDBRANCH  51  63
ENDBRANCH  48  51
ENDBRANCH  42  47
ENDBRANCH  40  42
ENDBRANCH   1  38
TORSDOF 31
ENDMDL
MODEL 3
REMARK VINA RESULT:      -6.0      2.567      5.543
REMARK  31 active torsions:
REMARK  status: ('A' for Active; 'I' for Inactive)
REMARK    1  A    between atoms: N_1  and  CA_2 
REMARK    2  A    between atoms: CA_2  and  C_3 
REMARK    3  A    between atoms: CA_2  and  CB_5 
REMARK       I    between atoms: C_3  and  N_14 
REMARK    4  A    between atoms: CB_5  and  CG_6 
REMARK    5  A    between atoms: CG_6  and  CD_7 
REMARK    6  A    between atoms: CD_7  and  CE_8 
REMARK    7  A    between atoms: CE_8  and  NZ_9 
REMARK    8  A    between atoms: N_14  and  CA_15 
REMARK    9  A    between atoms: CA_15  and  C_16 
REMARK   10  A    between atoms: CA_15  and  CB_18 
REMARK       I    between atoms: C_16  and  N_22 
REMARK   11  A    between atoms: CB_18  and  SG_19 
REMARK   12  A    between atoms: N_22  and  CA_23 
REMARK   13  A    between atoms: CA_23  and  CB_26 
REMARK   14  A    between atoms: CA_23  and  C_24 
REMARK       I    between atoms: C_24  and  N_36 
REMARK   15  A    between atoms: CB_26  and  OG_27 
REMARK   16  A    between atoms: CA_30  and  N_36 
REMARK   17  A    between atoms: CA_30  and  CB_32 
REMARK   18  A    between atoms: CA_30  and  C_31 
REMARK       I    between atoms: C_31  and  N_46 
REMARK   19  A    between atoms: CB_32  and  CG_33 
REMARK   20  A    between atoms: CG_33  and  CD_34 
REMARK   21  A    between atoms: CA_40  and  N_46 
REMARK   22  A    between atoms: CA_40  and  CB_42 
REMARK   23  A    between atoms: CA_40  and  C_41 
REMARK       I    between atoms: C_41  and  N_62 
REMARK   24  A    between atoms: CB_42  and  OG1_48 
REMARK   25  A    between atoms: CA_49  and  CB_51 
REMARK   26  A    between atoms: CA_49  and  N_62 
REMARK   27  A    between atoms: CA_49  and  C_50 
REMARK       I    between atoms: C_50  and  N_71 
REMARK   28  A    between atoms: CB_51  and  CG_52 
REMARK   29  A    between atoms: CA_65  and  N_71 
REMARK   30  A    between atoms: CA_65  and  CB_67 
REMARK   31  A    between atoms: CA_65  and  C_66 
ROOT
ATOM      1  CA  GLU B   4       5.693  90.547  61.119  1.00  0.00     0.177 C 
ENDROOT
BRANCH   1   2
ATOM      2  N   GLU B   4       6.908  89.994  61.714  1.00  0.00    -0.346 N 
ATOM      3  H   GLU B   4       7.523  89.475  61.154  1.00  0.23     0.163 HD
ATOM      4  C   SER B   3       7.190  90.166  63.004  1.00  0.00     0.243 C 
ATOM      5  O   SER B   3       6.467  90.818  63.758  1.00  0.00    -0.271 OA
BRANCH   4   6
ATOM      6  CA  SER B   3       8.482  89.559  63.499  1.00  0.00     0.200 C 
BRANCH   6   7
ATOM      7  CB  SER B   3       8.304  88.068  63.878  1.00  0.00     0.199 C 
BRANCH   7   8
ATOM      8  OG  SER B   3       9.313  87.598  64.777  1.00  0.00    -0.398 OA
ATOM      9  HG  SER B   3       9.593  86.731  64.469  1.00  0.00     0.209 HD
ENDBRANCH   7   8
ENDBRANCH   6   7
BRANCH   6  10
ATOM     10  N   SER B   3       9.019  90.320  64.624  1.00  0.00    -0.344 N 
ATOM     11  H   SER B   3       8.396  90.722  65.265  1.00  0.00     0.163 HD
ATOM     12  C   CYS B   2      10.342  90.486  64.811  1.00  0.00     0.242 C 
ATOM     13  O   CYS B   2      11.177  90.029  64.035  1.00  0.00    -0.271 OA
BRANCH  12  14
ATOM     14  CA  CYS B   2      10.743  91.310  66.013  1.00  0.00     0.185 C 
BRANCH  14  15
ATOM     15  N   CYS B   2      10.617  90.534  67.244  1.00  0.00    -0.345 N 
ATOM     16  H   CYS B   2      11.382  90.000  67.556  1.00  0.00     0.163 HD
ATOM     17  C   LYS B   1       9.487  90.531  67.956  1.00  0.00     0.254 C 
ATOM     18  O   LYS B   1       8.512  91.222  67.643  1.00  0.00    -0.271 OA
BRANCH  17  19
ATOM     19  CA  LYS B   1       9.482  89.671  69.198  1.00  0.00     0.350 C 
BRANCH  19  20
ATOM     20  CB  LYS B   1       8.715  88.343  68.951  1.00  0.00     0.048 C 
BRANCH  20  21
ATOM     21  CG  LYS B   1       7.342  88.284  69.665  1.00  0.00     0.004 C 
BRANCH  21  22
ATOM     22  CD  LYS B   1       6.167  88.830  68.848  1.00  0.00     0.027 C 
BRANCH  22  23
ATOM     23  CE  LYS B   1       6.316  88.383  67.387  1.00  0.00     0.229 C 
BRANCH  23  24
ATOM     24  NZ  LYS B   1       6.227  89.559  66.504  1.00  0.00    -0.079 N 
ATOM     25  HZ3 LYS B   1       5.379  89.447  65.967  1.00  0.00     0.274 HD
ATOM     26  HZ2 LYS B   1       7.044  89.625  65.888  1.00  0.00     0.274 HD
ATOM     27  HZ1 LYS B   1       6.214  90.426  67.055  1.00  0.00     0.274 HD
ENDBRANCH  23  24
ENDBRANCH  22  23
ENDBRANCH  21  22
ENDBRANCH  20  21
ENDBRANCH  19  20
BRANCH  19  28
ATOM     28  N   LYS B   1       8.878  90.380  70.323  1.00  0.00     0.312 N 
ATOM     29  H   LYS B   1       9.638  90.672  71.012  1.00  0.00     0.359 HD
ENDBRANCH  19  28
ENDBRANCH  17  19
ENDBRANCH  14  15
BRANCH  14  30
ATOM     30  CB  CYS B   2      12.188  91.836  65.911  1.00  0.00     0.105 C 
BRANCH  30  31
ATOM     31  SG  CYS B   2      12.248  93.356  64.935  1.00  0.00    -0.180 SA
ATOM     32  HG  CYS B   2      12.621  94.165  65.924  1.00  0.00     0.101 HD
ENDBRANCH  30  31
ENDBRANCH  14  30
ENDBRANCH  12  14
ENDBRANCH   6  10
ENDBRANCH   4   6
ENDBRANCH   1   2
BRANCH   1  33
ATOM     33  CB  GLU B   4       5.954  91.952  60.574  1.00  0.00     0.045 C 
BRANCH  33  34
ATOM     34  CG  GLU B   4       4.738  92.861  60.642  1.00  0.00     0.116 C 
BRANCH  34  35
ATOM     35  CD  GLU B   4       4.841  93.897  61.745  1.00  0.00     0.172 C 
ATOM     36  OE1 GLU B   4       5.772  93.794  62.570  1.00  0.00    -0.648 OA
ATOM     37  OE2 GLU B   4       3.990  94.810  61.782  1.00  0.00    -0.648 OA
ENDBRANCH  34  35
ENDBRANCH  33  34
ENDBRANCH   1  33
BRANCH   1  38
ATOM     38  C   GLU B   4       5.180  89.648  59.998  1.00  0.00     0.241 C 
ATOM     39  O   GLU B   4       4.951  90.105  58.878  1.00  0.00    -0.271 OA
ATOM     40  N   THR B   5       4.996  88.368  60.311  1.00  7.70    -0.344 N 
ATOM     41  H   THR B   5       5.195  88.069  61.223  1.00  0.23     0.163 HD
BRANCH  40  42
ATOM     42  CA  THR B   5       4.505  87.398  59.337  1.00  7.88     0.205 C 
BRANCH  42  43
ATOM     43  CB  THR B   5       5.428  86.178  59.292  1.00  4.05     0.146 C 
ATOM     44  CG2 THR B   5       6.576  86.333  58.319  1.00  3.72     0.042 C 
BRANCH  43  45
ATOM     45  OG1 THR B   5       5.981  85.921  60.571  1.00  7.31    -0.393 OA
ATOM     46  HG1 THR B   5       6.939  85.940  60.515  1.00  0.23     0.210 HD
ENDBRANCH  43  45
ENDBRANCH  42  43
BRANCH  42  47
ATOM     47  C   THR B   5       3.085  86.963  59.681  1.00  7.05     0.243 C 
ATOM     48  N   TRP B   6       2.905  86.441  60.890  1.00  0.00    -0.346 N 
ATOM     49  H   TRP B   6       3.672  86.360  61.495  1.00  0.23     0.163 HD
ATOM     50  O   THR B   5       2.171  87.095  58.867  1.00  6.06    -0.271 OA
BRANCH  48  51
ATOM     51  CA  TRP B   6       1.596  85.984  61.338  1.00  0.00     0.181 C 
BRANCH  51  52
ATOM     52  CB  TRP B   6       1.452  84.480  61.099  1.00  0.00     0.075 C 
BRANCH  52  53
ATOM     53  CG  TRP B   6       2.317  83.659  62.006  1.00  0.00    -0.028 A 
ATOM     54  CD2 TRP B   6       1.960  82.427  62.645  1.00  0.00    -0.002 A 
ATOM     55  CE2 TRP B   6       3.077  82.008  63.393  1.00  0.00     0.042 A 
ATOM     56  CE3 TRP B   6       0.806  81.640  62.658  1.00  0.00     0.014 A 
ATOM     57  CZ2 TRP B   6       3.071  80.836  64.145  1.00  0.00     0.030 A 
ATOM     58  NE1 TRP B   6       4.065  82.941  63.217  1.00  0.00    -0.365 N 
ATOM     59  CH2 TRP B   6       1.928  80.084  64.140  1.00  0.00     0.002 A 
ATOM     60  CZ3 TRP B   6       0.802  80.476  63.405  1.00  0.00     0.001 A 
ATOM     61  HE1 TRP B   6       4.958  82.910  63.620  1.00  0.23     0.165 HD
ATOM     62  CD1 TRP B   6       3.600  83.929  62.382  1.00  0.00     0.096 A 
ENDBRANCH  52  53
ENDBRANCH  51  52
BRANCH  51  63
ATOM     63  C   TRP B   6       1.382  86.305  62.813  1.00  0.00     0.241 C 
ATOM     64  N   VAL B   7       2.044  87.356  63.285  1.00  6.11    -0.344 N 
ATOM     65  H   VAL B   7       2.623  87.865  62.681  1.00  0.23     0.163 HD
ATOM     66  O   TRP B   6       0.636  85.613  63.508  1.00  0.00    -0.271 OA
BRANCH  64  67
ATOM     67  CA  VAL B   7       1.932  87.770  64.678  1.00  5.65     0.189 C 
BRANCH  67  68
ATOM     68  CB  VAL B   7       3.034  88.782  65.049  1.00  1.15     0.010 C 
ATOM     69  CG1 VAL B   7       3.278  89.751  63.901  1.00  4.96     0.012 C 
ATOM     70  CG2 VAL B   7       2.668  89.533  66.320  1.00  9.83     0.012 C 
ENDBRANCH  67  68
BRANCH  67  71
ATOM     71  C   VAL B   7       0.568  88.394  64.959  1.00  4.44     0.197 C 
ATOM     72  OXT VAL B   7      -0.062  88.010  65.965  1.00  0.00    -0.646 OA
ATOM     73  O   VAL B   7       0.143  89.262  64.168  1.00  0.00    -0.646 OA
ENDBRANCH  67  71
ENDBRANCH  64  67
ENDBRANCH  51  63
ENDBRANCH  48  51
ENDBRANCH  42  47
ENDBRANCH  40  42
ENDBRANCH   1  38
TORSDOF 31
ENDMDL
MODEL 4
REMARK VINA RESULT:      -6.0      2.254      4.961
REMARK  31 active torsions:
REMARK  status: ('A' for Active; 'I' for Inactive)
REMARK    1  A    between atoms: N_1  and  CA_2 
REMARK    2  A    between atoms: CA_2  and  C_3 
REMARK    3  A    between atoms: CA_2  and  CB_5 
REMARK       I    between atoms: C_3  and  N_14 
REMARK    4  A    between atoms: CB_5  and  CG_6 
REMARK    5  A    between atoms: CG_6  and  CD_7 
REMARK    6  A    between atoms: CD_7  and  CE_8 
REMARK    7  A    between atoms: CE_8  and  NZ_9 
REMARK    8  A    between atoms: N_14  and  CA_15 
REMARK    9  A    between atoms: CA_15  and  C_16 
REMARK   10  A    between atoms: CA_15  and  CB_18 
REMARK       I    between atoms: C_16  and  N_22 
REMARK   11  A    between atoms: CB_18  and  SG_19 
REMARK   12  A    between atoms: N_22  and  CA_23 
REMARK   13  A    between atoms: CA_23  and  CB_26 
REMARK   14  A    between atoms: CA_23  and  C_24 
REMARK       I    between atoms: C_24  and  N_36 
REMARK   15  A    between atoms: CB_26  and  OG_27 
REMARK   16  A    between atoms: CA_30  and  N_36 
REMARK   17  A    between atoms: CA_30  and  CB_32 
REMARK   18  A    between atoms: CA_30  and  C_31 
REMARK       I    between atoms: C_31  and  N_46 
REMARK   19  A    between atoms: CB_32  and  CG_33 
REMARK   20  A    between atoms: CG_33  and  CD_34 
REMARK   21  A    between atoms: CA_40  and  N_46 
REMARK   22  A    between atoms: CA_40  and  CB_42 
REMARK   23  A    between atoms: CA_40  and  C_41 
REMARK       I    between atoms: C_41  and  N_62 
REMARK   24  A    between atoms: CB_42  and  OG1_48 
REMARK   25  A    between atoms: CA_49  and  CB_51 
REMARK   26  A    between atoms: CA_49  and  N_62 
REMARK   27  A    between atoms: CA_49  and  C_50 
REMARK       I    between atoms: C_50  and  N_71 
REMARK   28  A    between atoms: CB_51  and  CG_52 
REMARK   29  A    between atoms: CA_65  and  N_71 
REMARK   30  A    between atoms: CA_65  and  CB_67 
REMARK   31  A    between atoms: CA_65  and  C_66 
ROOT
ATOM      1  CA  GLU B   4       4.853  90.773  60.201  1.00  0.00     0.177 C 
ENDROOT
BRANCH   1   2
ATOM      2  N   GLU B   4       6.183  90.424  60.697  1.00  0.00    -0.346 N 
ATOM      3  H   GLU B   4       6.854  90.085  60.070  1.00  0.23     0.163 HD
ATOM      4  C   SER B   3       6.495  90.540  61.986  1.00  0.00     0.243 C 
ATOM      5  O   SER B   3       5.701  90.973  62.823  1.00  0.00    -0.271 OA
BRANCH   4   6
ATOM      6  CA  SER B   3       7.905  90.162  62.375  1.00  0.00     0.200 C 
BRANCH   6   7
ATOM      7  CB  SER B   3       8.006  88.669  62.774  1.00  0.00     0.199 C 
BRANCH   7   8
ATOM      8  OG  SER B   3       6.741  87.999  62.744  1.00  0.00    -0.398 OA
ATOM      9  HG  SER B   3       6.586  87.637  63.621  1.00  0.00     0.209 HD
ENDBRANCH   7   8
ENDBRANCH   6   7
BRANCH   6  10
ATOM     10  N   SER B   3       8.399  91.021  63.449  1.00  0.00    -0.344 N 
ATOM     11  H   SER B   3       8.861  91.853  63.216  1.00  0.00     0.163 HD
ATOM     12  C   CYS B   2       8.239  90.707  64.749  1.00  0.00     0.242 C 
ATOM     13  O   CYS B   2       7.691  89.670  65.111  1.00  0.00    -0.271 OA
BRANCH  12  14
ATOM     14  CA  CYS B   2       8.816  91.689  65.743  1.00  0.00     0.185 C 
BRANCH  14  15
ATOM     15  N   CYS B   2      10.253  91.856  65.538  1.00  0.00    -0.345 N 
ATOM     16  H   CYS B   2      10.572  92.543  64.912  1.00  0.00     0.163 HD
ATOM     17  C   LYS B   1      11.144  91.096  66.182  1.00  0.00     0.254 C 
ATOM     18  O   LYS B   1      10.804  90.253  67.019  1.00  0.00    -0.271 OA
BRANCH  17  19
ATOM     19  CA  LYS B   1      12.598  91.359  65.866  1.00  0.00     0.350 C 
BRANCH  19  20
ATOM     20  CB  LYS B   1      12.802  91.586  64.343  1.00  0.00     0.048 C 
BRANCH  20  21
ATOM     21  CG  LYS B   1      14.011  92.497  64.013  1.00  0.00     0.004 C 
BRANCH  21  22
ATOM     22  CD  LYS B   1      13.685  93.709  63.137  1.00  0.00     0.027 C 
BRANCH  22  23
ATOM     23  CE  LYS B   1      14.765  94.781  63.333  1.00  0.00     0.229 C 
BRANCH  23  24
ATOM     24  NZ  LYS B   1      15.955  94.429  62.539  1.00  0.00    -0.079 N 
ATOM     25  HZ3 LYS B   1      16.659  94.129  63.198  1.00  0.00     0.274 HD
ATOM     26  HZ2 LYS B   1      16.287  95.228  61.989  1.00  0.00     0.274 HD
ATOM     27  HZ1 LYS B   1      15.733  93.689  61.862  1.00  0.00     0.274 HD
ENDBRANCH  23  24
ENDBRANCH  22  23
ENDBRANCH  21  22
ENDBRANCH  20  21
ENDBRANCH  19  20
BRANCH  19  28
ATOM     28  N   LYS B   1      13.438  90.250  66.309  1.00  0.00     0.312 N 
ATOM     29  H   LYS B   1      14.325  90.215  65.717  1.00  0.00     0.359 HD
ENDBRANCH  19  28
ENDBRANCH  17  19
ENDBRANCH  14  15
BRANCH  14  30
ATOM     30  CB  CYS B   2       8.146  93.073  65.660  1.00  0.00     0.105 C 
BRANCH  30  31
ATOM     31  SG  CYS B   2       6.358  92.934  65.891  1.00  0.00    -0.180 SA
ATOM     32  HG  CYS B   2       6.366  92.987  67.221  1.00  0.00     0.101 HD
ENDBRANCH  30  31
ENDBRANCH  14  30
ENDBRANCH  12  14
ENDBRANCH   6  10
ENDBRANCH   4   6
ENDBRANCH   1   2
BRANCH   1  33
ATOM     33  CB  GLU B   4       4.920  92.022  59.320  1.00  0.00     0.045 C 
BRANCH  33  34
ATOM     34  CG  GLU B   4       4.113  93.189  59.865  1.00  0.00     0.116 C 
BRANCH  34  35
ATOM     35  CD  GLU B   4       4.812  93.903  61.007  1.00  0.00     0.172 C 
ATOM     36  OE1 GLU B   4       4.118  94.567  61.804  1.00  0.00    -0.648 OA
ATOM     37  OE2 GLU B   4       6.052  93.796  61.102  1.00  0.00    -0.648 OA
ENDBRANCH  34  35
ENDBRANCH  33  34
ENDBRANCH   1  33
BRANCH   1  38
ATOM     38  C   GLU B   4       4.248  89.617  59.409  1.00  0.00     0.241 C 
ATOM     39  O   GLU B   4       3.562  89.829  58.409  1.00  0.00    -0.271 OA
ATOM     40  N   THR B   5       4.504  88.395  59.868  1.00  7.70    -0.344 N 
ATOM     41  H   THR B   5       5.056  88.296  60.672  1.00  0.23     0.163 HD
BRANCH  40  42
ATOM     42  CA  THR B   5       3.985  87.200  59.211  1.00  7.88     0.205 C 
BRANCH  42  43
ATOM     43  CB  THR B   5       4.910  86.009  59.468  1.00  4.05     0.146 C 
ATOM     44  CG2 THR B   5       6.023  85.886  58.450  1.00  3.72     0.042 C 
BRANCH  43  45
ATOM     45  OG1 THR B   5       5.509  86.108  60.748  1.00  7.31    -0.393 OA
ATOM     46  HG1 THR B   5       5.345  85.301  61.241  1.00  0.23     0.210 HD
ENDBRANCH  43  45
ENDBRANCH  42  43
BRANCH  42  47
ATOM     47  C   THR B   5       2.578  86.882  59.706  1.00  7.05     0.243 C 
ATOM     48  N   TRP B   6       2.491  86.308  60.901  1.00  0.00    -0.346 N 
ATOM     49  H   TRP B   6       3.312  86.119  61.402  1.00  0.23     0.163 HD
ATOM     50  O   THR B   5       1.593  87.148  59.018  1.00  6.06    -0.271 OA
BRANCH  48  51
ATOM     51  CA  TRP B   6       1.204  85.951  61.485  1.00  0.00     0.181 C 
BRANCH  51  52
ATOM     52  CB  TRP B   6       0.947  84.453  61.319  1.00  0.00     0.075 C 
BRANCH  52  53
ATOM     53  CG  TRP B   6       1.914  83.606  62.089  1.00  0.00    -0.028 A 
ATOM     54  CD2 TRP B   6       1.653  82.323  62.672  1.00  0.00    -0.002 A 
ATOM     55  CE2 TRP B   6       2.845  81.896  63.289  1.00  0.00     0.042 A 
ATOM     56  CE3 TRP B   6       0.528  81.497  62.734  1.00  0.00     0.014 A 
ATOM     57  CZ2 TRP B   6       2.941  80.678  63.957  1.00  0.00     0.030 A 
ATOM     58  NE1 TRP B   6       3.785  82.873  63.089  1.00  0.00    -0.365 N 
ATOM     59  CH2 TRP B   6       1.825  79.888  64.002  1.00  0.00     0.002 A 
ATOM     60  CZ3 TRP B   6       0.626  80.287  63.398  1.00  0.00     0.001 A 
ATOM     61  HE1 TRP B   6       4.712  82.847  63.409  1.00  0.23     0.165 HD
ATOM     62  CD1 TRP B   6       3.218  83.896  62.368  1.00  0.00     0.096 A 
ENDBRANCH  52  53
ENDBRANCH  51  52
BRANCH  51  63
ATOM     63  C   TRP B   6       1.150  86.334  62.960  1.00  0.00     0.241 C 
ATOM     64  N   VAL B   7       1.841  87.415  63.309  1.00  6.11    -0.344 N 
ATOM     65  H   VAL B   7       2.340  87.904  62.623  1.00  0.23     0.163 HD
ATOM     66  O   TRP B   6       0.499  85.664  63.763  1.00  0.00    -0.271 OA
BRANCH  64  67
ATOM     67  CA  VAL B   7       1.877  87.889  64.687  1.00  5.65     0.189 C 
BRANCH  67  68
ATOM     68  CB  VAL B   7       3.125  88.754  64.947  1.00  1.15     0.010 C 
ATOM     69  CG1 VAL B   7       2.859  90.204  64.567  1.00  4.96     0.012 C 
ATOM     70  CG2 VAL B   7       3.560  88.649  66.401  1.00  9.83     0.012 C 
ENDBRANCH  67  68
BRANCH  67  71
ATOM     71  C   VAL B   7       0.629  88.700  65.023  1.00  4.44     0.197 C 
ATOM     72  OXT VAL B   7       0.263  88.757  66.215  1.00  0.00    -0.646 OA
ATOM     73  O   VAL B   7       0.030  89.273  64.089  1.00  0.00    -0.646 OA
ENDBRANCH  67  71
ENDBRANCH  64  67
ENDBRANCH  51  63
ENDBRANCH  48  51
ENDBRANCH  42  47
ENDBRANCH  40  42
ENDBRANCH   1  38
TORSDOF 31
ENDMDL
MODEL 5
REMARK VINA RESULT:      -5.2      3.013      5.612
REMARK  31 active torsions:
REMARK  status: ('A' for Active; 'I' for Inactive)
REMARK    1  A    between atoms: N_1  and  CA_2 
REMARK    2  A    between atoms: CA_2  and  C_3 
REMARK    3  A    between atoms: CA_2  and  CB_5 
REMARK       I    between atoms: C_3  and  N_14 
REMARK    4  A    between atoms: CB_5  and  CG_6 
REMARK    5  A    between atoms: CG_6  and  CD_7 
REMARK    6  A    between atoms: CD_7  and  CE_8 
REMARK    7  A    between atoms: CE_8  and  NZ_9 
REMARK    8  A    between atoms: N_14  and  CA_15 
REMARK    9  A    between atoms: CA_15  and  C_16 
REMARK   10  A    between atoms: CA_15  and  CB_18 
REMARK       I    between atoms: C_16  and  N_22 
REMARK   11  A    between atoms: CB_18  and  SG_19 
REMARK   12  A    between atoms: N_22  and  CA_23 
REMARK   13  A    between atoms: CA_23  and  CB_26 
REMARK   14  A    between atoms: CA_23  and  C_24 
REMARK       I    between atoms: C_24  and  N_36 
REMARK   15  A    between atoms: CB_26  and  OG_27 
REMARK   16  A    between atoms: CA_30  and  N_36 
REMARK   17  A    between atoms: CA_30  and  CB_32 
REMARK   18  A    between atoms: CA_30  and  C_31 
REMARK       I    between atoms: C_31  and  N_46 
REMARK   19  A    between atoms: CB_32  and  CG_33 
REMARK   20  A    between atoms: CG_33  and  CD_34 
REMARK   21  A    between atoms: CA_40  and  N_46 
REMARK   22  A    between atoms: CA_40  and  CB_42 
REMARK   23  A    between atoms: CA_40  and  C_41 
REMARK       I    between atoms: C_41  and  N_62 
REMARK   24  A    between atoms: CB_42  and  OG1_48 
REMARK   25  A    between atoms: CA_49  and  CB_51 
REMARK   26  A    between atoms: CA_49  and  N_62 
REMARK   27  A    between atoms: CA_49  and  C_50 
REMARK       I    between atoms: C_50  and  N_71 
REMARK   28  A    between atoms: CB_51  and  CG_52 
REMARK   29  A    between atoms: CA_65  and  N_71 
REMARK   30  A    between atoms: CA_65  and  CB_67 
REMARK   31  A    between atoms: CA_65  and  C_66 
ROOT
ATOM      1  CA  GLU B   4       4.625  91.286  60.672  1.00  0.00     0.177 C 
ENDROOT
BRANCH   1   2
ATOM      2  N   GLU B   4       5.903  90.715  61.091  1.00  0.00    -0.346 N 
ATOM      3  H   GLU B   4       6.443  90.221  60.440  1.00  0.23     0.163 HD
ATOM      4  C   SER B   3       6.341  90.839  62.342  1.00  0.00     0.243 C 
ATOM      5  O   SER B   3       5.718  91.459  63.204  1.00  0.00    -0.271 OA
BRANCH   4   6
ATOM      6  CA  SER B   3       7.684  90.219  62.651  1.00  0.00     0.200 C 
BRANCH   6   7
ATOM      7  CB  SER B   3       7.909  88.914  61.846  1.00  0.00     0.199 C 
BRANCH   7   8
ATOM      8  OG  SER B   3       7.396  87.755  62.511  1.00  0.00    -0.398 OA
ATOM      9  HG  SER B   3       7.150  88.019  63.401  1.00  0.00     0.209 HD
ENDBRANCH   7   8
ENDBRANCH   6   7
BRANCH   6  10
ATOM     10  N   SER B   3       7.832  89.977  64.083  1.00  0.00    -0.344 N 
ATOM     11  H   SER B   3       7.279  89.287  64.507  1.00  0.00     0.163 HD
ATOM     12  C   CYS B   2       8.703  90.669  64.842  1.00  0.00     0.242 C 
ATOM     13  O   CYS B   2       9.409  91.562  64.381  1.00  0.00    -0.271 OA
BRANCH  12  14
ATOM     14  CA  CYS B   2       8.731  90.313  66.310  1.00  0.00     0.185 C 
BRANCH  14  15
ATOM     15  N   CYS B   2       9.010  88.892  66.499  1.00  0.00    -0.345 N 
ATOM     16  H   CYS B   2       9.827  88.508  66.109  1.00  0.00     0.163 HD
ATOM     17  C   LYS B   1       8.182  88.102  67.188  1.00  0.00     0.254 C 
ATOM     18  O   LYS B   1       7.169  88.539  67.745  1.00  0.00    -0.271 OA
BRANCH  17  19
ATOM     19  CA  LYS B   1       8.578  86.648  67.292  1.00  0.00     0.350 C 
BRANCH  19  20
ATOM     20  CB  LYS B   1       9.489  86.408  68.527  1.00  0.00     0.048 C 
BRANCH  20  21
ATOM     21  CG  LYS B   1       8.920  85.362  69.518  1.00  0.00     0.004 C 
BRANCH  21  22
ATOM     22  CD  LYS B   1       7.826  84.459  68.942  1.00  0.00     0.027 C 
BRANCH  22  23
ATOM     23  CE  LYS B   1       7.051  83.806  70.095  1.00  0.00     0.229 C 
BRANCH  23  24
ATOM     24  NZ  LYS B   1       6.592  84.848  71.029  1.00  0.00    -0.079 N 
ATOM     25  HZ3 LYS B   1       7.386  85.450  71.196  1.00  0.00     0.274 HD
ATOM     26  HZ2 LYS B   1       6.253  84.440  71.907  1.00  0.00     0.274 HD
ATOM     27  HZ1 LYS B   1       5.801  85.368  70.632  1.00  0.00     0.274 HD
ENDBRANCH  23  24
ENDBRANCH  22  23
ENDBRANCH  21  22
ENDBRANCH  20  21
ENDBRANCH  19  20
BRANCH  19  28
ATOM     28  N   LYS B   1       9.270  86.207  66.085  1.00  0.00     0.312 N 
ATOM     29  H   LYS B   1      10.324  86.220  66.252  1.00  0.00     0.359 HD
ENDBRANCH  19  28
ENDBRANCH  17  19
ENDBRANCH  14  15
BRANCH  14  30
ATOM     30  CB  CYS B   2       9.779  91.126  67.094  1.00  0.00     0.105 C 
BRANCH  30  31
ATOM     31  SG  CYS B   2      11.405  90.342  66.991  1.00  0.00    -0.180 SA
ATOM     32  HG  CYS B   2      10.989  89.092  67.179  1.00  0.00     0.101 HD
ENDBRANCH  30  31
ENDBRANCH  14  30
ENDBRANCH  12  14
ENDBRANCH   6  10
ENDBRANCH   4   6
ENDBRANCH   1   2
BRANCH   1  33
ATOM     33  CB  GLU B   4       4.826  92.688  60.097  1.00  0.00     0.045 C 
BRANCH  33  34
ATOM     34  CG  GLU B   4       3.677  93.636  60.400  1.00  0.00     0.116 C 
BRANCH  34  35
ATOM     35  CD  GLU B   4       4.009  94.628  61.499  1.00  0.00     0.172 C 
ATOM     36  OE1 GLU B   4       3.445  95.741  61.483  1.00  0.00    -0.648 OA
ATOM     37  OE2 GLU B   4       4.833  94.289  62.374  1.00  0.00    -0.648 OA
ENDBRANCH  34  35
ENDBRANCH  33  34
ENDBRANCH   1  33
BRANCH   1  38
ATOM     38  C   GLU B   4       3.947  90.396  59.634  1.00  0.00     0.241 C 
ATOM     39  O   GLU B   4       3.382  90.886  58.656  1.00  0.00    -0.271 OA
ATOM     40  N   THR B   5       4.004  89.086  59.858  1.00  7.70    -0.344 N 
ATOM     41  H   THR B   5       4.468  88.761  60.658  1.00  0.23     0.163 HD
BRANCH  40  42
ATOM     42  CA  THR B   5       3.395  88.120  58.949  1.00  7.88     0.205 C 
BRANCH  42  43
ATOM     43  CB  THR B   5       4.311  86.908  58.772  1.00  4.05     0.146 C 
ATOM     44  CG2 THR B   5       5.271  86.711  59.924  1.00  3.72     0.042 C 
BRANCH  43  45
ATOM     45  OG1 THR B   5       3.549  85.720  58.641  1.00  7.31    -0.393 OA
ATOM     46  HG1 THR B   5       2.635  85.899  58.872  1.00  0.23     0.210 HD
ENDBRANCH  43  45
ENDBRANCH  42  43
BRANCH  42  47
ATOM     47  C   THR B   5       2.034  87.672  59.474  1.00  7.05     0.243 C 
ATOM     48  N   TRP B   6       2.014  87.172  60.704  1.00  0.00    -0.346 N 
ATOM     49  H   TRP B   6       2.851  87.113  61.211  1.00  0.23     0.163 HD
ATOM     50  O   THR B   5       1.025  87.776  58.776  1.00  6.06    -0.271 OA
BRANCH  48  51
ATOM     51  CA  TRP B   6       0.777  86.705  61.318  1.00  0.00     0.181 C 
BRANCH  51  52
ATOM     52  CB  TRP B   6       0.632  85.195  61.130  1.00  0.00     0.075 C 
BRANCH  52  53
ATOM     53  CG  TRP B   6       1.708  84.414  61.820  1.00  0.00    -0.028 A 
ATOM     54  CD2 TRP B   6       1.610  83.071  62.313  1.00  0.00    -0.002 A 
ATOM     55  CE2 TRP B   6       2.857  82.744  62.878  1.00  0.00     0.042 A 
ATOM     56  CE3 TRP B   6       0.590  82.117  62.331  1.00  0.00     0.014 A 
ATOM     57  CZ2 TRP B   6       3.109  81.501  63.453  1.00  0.00     0.030 A 
ATOM     58  NE1 TRP B   6       3.674  83.835  62.736  1.00  0.00    -0.365 N 
ATOM     59  CH2 TRP B   6       2.093  80.585  63.458  1.00  0.00     0.002 A 
ATOM     60  CZ3 TRP B   6       0.842  80.883  62.903  1.00  0.00     0.001 A 
ATOM     61  HE1 TRP B   6       4.605  83.894  63.038  1.00  0.23     0.165 HD
ATOM     62  CD1 TRP B   6       2.976  84.833  62.100  1.00  0.00     0.096 A 
ENDBRANCH  52  53
ENDBRANCH  51  52
BRANCH  51  63
ATOM     63  C   TRP B   6       0.739  87.056  62.802  1.00  0.00     0.241 C 
ATOM     64  N   VAL B   7       1.613  87.972  63.208  1.00  6.11    -0.344 N 
ATOM     65  H   VAL B   7       2.225  88.371  62.556  1.00  0.23     0.163 HD
ATOM     66  O   TRP B   6      -0.061  86.507  63.560  1.00  0.00    -0.271 OA
BRANCH  64  67
ATOM     67  CA  VAL B   7       1.685  88.397  64.601  1.00  5.65     0.189 C 
BRANCH  67  68
ATOM     68  CB  VAL B   7       2.810  87.658  65.351  1.00  1.15     0.010 C 
ATOM     69  CG1 VAL B   7       3.424  88.558  66.414  1.00  4.96     0.012 C 
ATOM     70  CG2 VAL B   7       2.287  86.371  65.972  1.00  9.83     0.012 C 
ENDBRANCH  67  68
BRANCH  67  71
ATOM     71  C   VAL B   7       1.920  89.901  64.706  1.00  4.44     0.197 C 
ATOM     72  OXT VAL B   7       1.229  90.552  65.516  1.00  0.00    -0.646 OA
ATOM     73  O   VAL B   7       2.795  90.413  63.978  1.00  0.00    -0.646 OA
ENDBRANCH  67  71
ENDBRANCH  64  67
ENDBRANCH  51  63
ENDBRANCH  48  51
ENDBRANCH  42  47
ENDBRANCH  40  42
ENDBRANCH   1  38
TORSDOF 31
ENDMDL
MODEL 6
REMARK VINA RESULT:      -4.3      3.029      6.059
REMARK  31 active torsions:
REMARK  status: ('A' for Active; 'I' for Inactive)
REMARK    1  A    between atoms: N_1  and  CA_2 
REMARK    2  A    between atoms: CA_2  and  C_3 
REMARK    3  A    between atoms: CA_2  and  CB_5 
REMARK       I    between atoms: C_3  and  N_14 
REMARK    4  A    between atoms: CB_5  and  CG_6 
REMARK    5  A    between atoms: CG_6  and  CD_7 
REMARK    6  A    between atoms: CD_7  and  CE_8 
REMARK    7  A    between atoms: CE_8  and  NZ_9 
REMARK    8  A    between atoms: N_14  and  CA_15 
REMARK    9  A    between atoms: CA_15  and  C_16 
REMARK   10  A    between atoms: CA_15  and  CB_18 
REMARK       I    between atoms: C_16  and  N_22 
REMARK   11  A    between atoms: CB_18  and  SG_19 
REMARK   12  A    between atoms: N_22  and  CA_23 
REMARK   13  A    between atoms: CA_23  and  CB_26 
REMARK   14  A    between atoms: CA_23  and  C_24 
REMARK       I    between atoms: C_24  and  N_36 
REMARK   15  A    between atoms: CB_26  and  OG_27 
REMARK   16  A    between atoms: CA_30  and  N_36 
REMARK   17  A    between atoms: CA_30  and  CB_32 
REMARK   18  A    between atoms: CA_30  and  C_31 
REMARK       I    between atoms: C_31  and  N_46 
REMARK   19  A    between atoms: CB_32  and  CG_33 
REMARK   20  A    between atoms: CG_33  and  CD_34 
REMARK   21  A    between atoms: CA_40  and  N_46 
REMARK   22  A    between atoms: CA_40  and  CB_42 
REMARK   23  A    between atoms: CA_40  and  C_41 
REMARK       I    between atoms: C_41  and  N_62 
REMARK   24  A    between atoms: CB_42  and  OG1_48 
REMARK   25  A    between atoms: CA_49  and  CB_51 
REMARK   26  A    between atoms: CA_49  and  N_62 
REMARK   27  A    between atoms: CA_49  and  C_50 
REMARK       I    between atoms: C_50  and  N_71 
REMARK   28  A    between atoms: CB_51  and  CG_52 
REMARK   29  A    between atoms: CA_65  and  N_71 
REMARK   30  A    between atoms: CA_65  and  CB_67 
REMARK   31  A    between atoms: CA_65  and  C_66 
ROOT
ATOM      1  CA  GLU B   4       4.485  90.752  60.712  1.00  0.00     0.177 C 
ENDROOT
BRANCH   1   2
ATOM      2  N   GLU B   4       5.574  90.083  61.420  1.00  0.00    -0.346 N 
ATOM      3  H   GLU B   4       5.832  89.176  61.154  1.00  0.23     0.163 HD
ATOM      4  C   SER B   3       6.212  90.673  62.428  1.00  0.00     0.243 C 
ATOM      5  O   SER B   3       5.945  91.816  62.802  1.00  0.00    -0.271 OA
BRANCH   4   6
ATOM      6  CA  SER B   3       7.330  89.886  63.072  1.00  0.00     0.200 C 
BRANCH   6   7
ATOM      7  CB  SER B   3       7.536  88.517  62.378  1.00  0.00     0.199 C 
BRANCH   7   8
ATOM      8  OG  SER B   3       8.229  88.625  61.130  1.00  0.00    -0.398 OA
ATOM      9  HG  SER B   3       9.086  89.022  61.309  1.00  0.00     0.209 HD
ENDBRANCH   7   8
ENDBRANCH   6   7
BRANCH   6  10
ATOM     10  N   SER B   3       7.091  89.713  64.502  1.00  0.00    -0.344 N 
ATOM     11  H   SER B   3       6.249  89.308  64.796  1.00  0.00     0.163 HD
ATOM     12  C   CYS B   2       7.991  90.092  65.431  1.00  0.00     0.242 C 
ATOM     13  O   CYS B   2       9.055  90.627  65.132  1.00  0.00    -0.271 OA
BRANCH  12  14
ATOM     14  CA  CYS B   2       7.594  89.859  66.870  1.00  0.00     0.185 C 
BRANCH  14  15
ATOM     15  N   CYS B   2       8.600  89.064  67.568  1.00  0.00    -0.345 N 
ATOM     16  H   CYS B   2       9.365  89.517  67.988  1.00  0.00     0.163 HD
ATOM     17  C   LYS B   1       8.507  87.733  67.648  1.00  0.00     0.254 C 
ATOM     18  O   LYS B   1       7.543  87.113  67.185  1.00  0.00    -0.271 OA
BRANCH  17  19
ATOM     19  CA  LYS B   1       9.624  87.028  68.381  1.00  0.00     0.350 C 
BRANCH  19  20
ATOM     20  CB  LYS B   1       9.095  86.342  69.671  1.00  0.00     0.048 C 
BRANCH  20  21
ATOM     21  CG  LYS B   1       7.632  86.720  70.013  1.00  0.00     0.004 C 
BRANCH  21  22
ATOM     22  CD  LYS B   1       6.757  85.551  70.474  1.00  0.00     0.027 C 
BRANCH  22  23
ATOM     23  CE  LYS B   1       5.397  85.628  69.767  1.00  0.00     0.229 C 
BRANCH  23  24
ATOM     24  NZ  LYS B   1       5.296  86.904  69.038  1.00  0.00    -0.079 N 
ATOM     25  HZ3 LYS B   1       4.358  87.246  69.192  1.00  0.00     0.274 HD
ATOM     26  HZ2 LYS B   1       5.478  86.778  68.036  1.00  0.00     0.274 HD
ATOM     27  HZ1 LYS B   1       6.000  87.571  69.374  1.00  0.00     0.274 HD
ENDBRANCH  23  24
ENDBRANCH  22  23
ENDBRANCH  21  22
ENDBRANCH  20  21
ENDBRANCH  19  20
BRANCH  19  28
ATOM     28  N   LYS B   1      10.692  87.961  68.729  1.00  0.00     0.312 N 
ATOM     29  H   LYS B   1      10.748  88.060  69.790  1.00  0.00     0.359 HD
ENDBRANCH  19  28
ENDBRANCH  17  19
ENDBRANCH  14  15
BRANCH  14  30
ATOM     30  CB  CYS B   2       7.388  91.176  67.644  1.00  0.00     0.105 C 
BRANCH  30  31
ATOM     31  SG  CYS B   2       6.555  92.402  66.610  1.00  0.00    -0.180 SA
ATOM     32  HG  CYS B   2       5.644  91.581  66.093  1.00  0.00     0.101 HD
ENDBRANCH  30  31
ENDBRANCH  14  30
ENDBRANCH  12  14
ENDBRANCH   6  10
ENDBRANCH   4   6
ENDBRANCH   1   2
BRANCH   1  33
ATOM     33  CB  GLU B   4       5.036  91.643  59.597  1.00  0.00     0.045 C 
BRANCH  33  34
ATOM     34  CG  GLU B   4       4.357  93.000  59.516  1.00  0.00     0.116 C 
BRANCH  34  35
ATOM     35  CD  GLU B   4       5.153  94.095  60.200  1.00  0.00     0.172 C 
ATOM     36  OE1 GLU B   4       6.311  94.327  59.796  1.00  0.00    -0.648 OA
ATOM     37  OE2 GLU B   4       4.617  94.720  61.139  1.00  0.00    -0.648 OA
ENDBRANCH  34  35
ENDBRANCH  33  34
ENDBRANCH   1  33
BRANCH   1  38
ATOM     38  C   GLU B   4       3.513  89.734  60.123  1.00  0.00     0.241 C 
ATOM     39  O   GLU B   4       2.674  90.072  59.288  1.00  0.00    -0.271 OA
ATOM     40  N   THR B   5       3.630  88.486  60.570  1.00  7.70    -0.344 N 
ATOM     41  H   THR B   5       4.318  88.283  61.238  1.00  0.23     0.163 HD
BRANCH  40  42
ATOM     42  CA  THR B   5       2.763  87.412  60.095  1.00  7.88     0.205 C 
BRANCH  42  43
ATOM     43  CB  THR B   5       3.491  86.069  60.173  1.00  4.05     0.146 C 
ATOM     44  CG2 THR B   5       4.505  86.004  61.294  1.00  3.72     0.042 C 
BRANCH  43  45
ATOM     45  OG1 THR B   5       2.569  85.011  60.367  1.00  7.31    -0.393 OA
ATOM     46  HG1 THR B   5       2.898  84.218  59.938  1.00  0.23     0.210 HD
ENDBRANCH  43  45
ENDBRANCH  42  43
BRANCH  42  47
ATOM     47  C   THR B   5       1.478  87.356  60.916  1.00  7.05     0.243 C 
ATOM     48  N   TRP B   6       1.626  87.292  62.235  1.00  0.00    -0.346 N 
ATOM     49  H   TRP B   6       2.528  87.285  62.616  1.00  0.23     0.163 HD
ATOM     50  O   THR B   5       0.378  87.368  60.366  1.00  6.06    -0.271 OA
BRANCH  48  51
ATOM     51  CA  TRP B   6       0.477  87.230  63.129  1.00  0.00     0.181 C 
BRANCH  51  52
ATOM     52  CB  TRP B   6      -0.059  85.799  63.202  1.00  0.00     0.075 C 
BRANCH  52  53
ATOM     53  CG  TRP B   6       1.020  84.781  63.408  1.00  0.00    -0.028 A 
ATOM     54  CD2 TRP B   6       0.987  83.406  63.008  1.00  0.00    -0.002 A 
ATOM     55  CE2 TRP B   6       2.212  82.830  63.397  1.00  0.00     0.042 A 
ATOM     56  CE3 TRP B   6       0.042  82.606  62.361  1.00  0.00     0.014 A 
ATOM     57  CZ2 TRP B   6       2.514  81.492  63.157  1.00  0.00     0.030 A 
ATOM     58  NE1 TRP B   6       2.954  83.810  64.004  1.00  0.00    -0.365 N 
ATOM     59  CH2 TRP B   6       1.570  80.731  62.522  1.00  0.00     0.002 A 
ATOM     60  CZ3 TRP B   6       0.344  81.277  62.125  1.00  0.00     0.001 A 
ATOM     61  HE1 TRP B   6       3.854  83.696  64.375  1.00  0.23     0.165 HD
ATOM     62  CD1 TRP B   6       2.231  84.978  64.006  1.00  0.00     0.096 A 
ENDBRANCH  52  53
ENDBRANCH  51  52
BRANCH  51  63
ATOM     63  C   TRP B   6       0.844  87.725  64.524  1.00  0.00     0.241 C 
ATOM     64  N   VAL B   7       1.871  88.567  64.594  1.00  6.11    -0.344 N 
ATOM     65  H   VAL B   7       2.332  88.826  63.770  1.00  0.23     0.163 HD
ATOM     66  O   TRP B   6       0.215  87.349  65.514  1.00  0.00    -0.271 OA
BRANCH  64  67
ATOM     67  CA  VAL B   7       2.329  89.113  65.865  1.00  5.65     0.189 C 
BRANCH  67  68
ATOM     68  CB  VAL B   7       1.163  89.252  66.864  1.00  1.15     0.010 C 
ATOM     69  CG1 VAL B   7       1.627  88.926  68.276  1.00  4.96     0.012 C 
ATOM     70  CG2 VAL B   7       0.565  90.650  66.802  1.00  9.83     0.012 C 
ENDBRANCH  67  68
BRANCH  67  71
ATOM     71  C   VAL B   7       3.413  88.235  66.484  1.00  4.44     0.197 C 
ATOM     72  OXT VAL B   7       4.604  88.579  66.343  1.00  0.00    -0.646 OA
ATOM     73  O   VAL B   7       3.058  87.211  67.105  1.00  0.00    -0.646 OA
ENDBRANCH  67  71
ENDBRANCH  64  67
ENDBRANCH  51  63
ENDBRANCH  48  51
ENDBRANCH  42  47
ENDBRANCH  40  42
ENDBRANCH   1  38
TORSDOF 31
ENDMDL
MODEL 7
REMARK VINA RESULT:      -3.7      3.787      7.508
REMARK  31 active torsions:
REMARK  status: ('A' for Active; 'I' for Inactive)
REMARK    1  A    between atoms: N_1  and  CA_2 
REMARK    2  A    between atoms: CA_2  and  C_3 
REMARK    3  A    between atoms: CA_2  and  CB_5 
REMARK       I    between atoms: C_3  and  N_14 
REMARK    4  A    between atoms: CB_5  and  CG_6 
REMARK    5  A    between atoms: CG_6  and  CD_7 
REMARK    6  A    between atoms: CD_7  and  CE_8 
REMARK    7  A    between atoms: CE_8  and  NZ_9 
REMARK    8  A    between atoms: N_14  and  CA_15 
REMARK    9  A    between atoms: CA_15  and  C_16 
REMARK   10  A    between atoms: CA_15  and  CB_18 
REMARK       I    between atoms: C_16  and  N_22 
REMARK   11  A    between atoms: CB_18  and  SG_19 
REMARK   12  A    between atoms: N_22  and  CA_23 
REMARK   13  A    between atoms: CA_23  and  CB_26 
REMARK   14  A    between atoms: CA_23  and  C_24 
REMARK       I    between atoms: C_24  and  N_36 
REMARK   15  A    between atoms: CB_26  and  OG_27 
REMARK   16  A    between atoms: CA_30  and  N_36 
REMARK   17  A    between atoms: CA_30  and  CB_32 
REMARK   18  A    between atoms: CA_30  and  C_31 
REMARK       I    between atoms: C_31  and  N_46 
REMARK   19  A    between atoms: CB_32  and  CG_33 
REMARK   20  A    between atoms: CG_33  and  CD_34 
REMARK   21  A    between atoms: CA_40  and  N_46 
REMARK   22  A    between atoms: CA_40  and  CB_42 
REMARK   23  A    between atoms: CA_40  and  C_41 
REMARK       I    between atoms: C_41  and  N_62 
REMARK   24  A    between atoms: CB_42  and  OG1_48 
REMARK   25  A    between atoms: CA_49  and  CB_51 
REMARK   26  A    between atoms: CA_49  and  N_62 
REMARK   27  A    between atoms: CA_49  and  C_50 
REMARK       I    between atoms: C_50  and  N_71 
REMARK   28  A    between atoms: CB_51  and  CG_52 
REMARK   29  A    between atoms: CA_65  and  N_71 
REMARK   30  A    between atoms: CA_65  and  CB_67 
REMARK   31  A    between atoms: CA_65  and  C_66 
ROOT
ATOM      1  CA  GLU B   4       3.722  89.043  60.909  1.00  0.00     0.177 C 
ENDROOT
BRANCH   1   2
ATOM      2  N   GLU B   4       4.908  88.755  61.713  1.00  0.00    -0.346 N 
ATOM      3  H   GLU B   4       5.277  87.847  61.715  1.00  0.23     0.163 HD
ATOM      4  C   SER B   3       5.488  89.695  62.455  1.00  0.00     0.243 C 
ATOM      5  O   SER B   3       5.083  90.858  62.487  1.00  0.00    -0.271 OA
BRANCH   4   6
ATOM      6  CA  SER B   3       6.717  89.280  63.231  1.00  0.00     0.200 C 
BRANCH   6   7
ATOM      7  CB  SER B   3       7.305  87.950  62.698  1.00  0.00     0.199 C 
BRANCH   7   8
ATOM      8  OG  SER B   3       7.844  88.069  61.377  1.00  0.00    -0.398 OA
ATOM      9  HG  SER B   3       7.188  87.726  60.766  1.00  0.00     0.209 HD
ENDBRANCH   7   8
ENDBRANCH   6   7
BRANCH   6  10
ATOM     10  N   SER B   3       6.426  89.185  64.659  1.00  0.00    -0.344 N 
ATOM     11  H   SER B   3       5.725  88.570  64.959  1.00  0.00     0.163 HD
ATOM     12  C   CYS B   2       7.091  89.913  65.576  1.00  0.00     0.242 C 
ATOM     13  O   CYS B   2       7.965  90.718  65.267  1.00  0.00    -0.271 OA
BRANCH  12  14
ATOM     14  CA  CYS B   2       6.667  89.713  67.013  1.00  0.00     0.185 C 
BRANCH  14  15
ATOM     15  N   CYS B   2       7.273  88.509  67.574  1.00  0.00    -0.345 N 
ATOM     16  H   CYS B   2       6.888  88.111  68.386  1.00  0.00     0.163 HD
ATOM     17  C   LYS B   1       8.339  87.935  67.009  1.00  0.00     0.254 C 
ATOM     18  O   LYS B   1       8.835  88.359  65.960  1.00  0.00    -0.271 OA
BRANCH  17  19
ATOM     19  CA  LYS B   1       8.880  86.704  67.700  1.00  0.00     0.350 C 
BRANCH  19  20
ATOM     20  CB  LYS B   1       7.801  86.064  68.616  1.00  0.00     0.048 C 
BRANCH  20  21
ATOM     21  CG  LYS B   1       8.178  84.645  69.111  1.00  0.00     0.004 C 
BRANCH  21  22
ATOM     22  CD  LYS B   1       7.020  83.845  69.715  1.00  0.00     0.027 C 
BRANCH  22  23
ATOM     23  CE  LYS B   1       5.882  84.805  70.089  1.00  0.00     0.229 C 
BRANCH  23  24
ATOM     24  NZ  LYS B   1       4.598  84.086  70.039  1.00  0.00    -0.079 N 
ATOM     25  HZ3 LYS B   1       4.246  84.197  69.098  1.00  0.00     0.274 HD
ATOM     26  HZ2 LYS B   1       3.933  84.460  70.723  1.00  0.00     0.274 HD
ATOM     27  HZ1 LYS B   1       4.727  83.096  70.278  1.00  0.00     0.274 HD
ENDBRANCH  23  24
ENDBRANCH  22  23
ENDBRANCH  21  22
ENDBRANCH  20  21
ENDBRANCH  19  20
BRANCH  19  28
ATOM     28  N   LYS B   1      10.062  87.027  68.493  1.00  0.00     0.312 N 
ATOM     29  H   LYS B   1      10.417  86.145  68.980  1.00  0.00     0.359 HD
ENDBRANCH  19  28
ENDBRANCH  17  19
ENDBRANCH  14  15
BRANCH  14  30
ATOM     30  CB  CYS B   2       7.040  90.911  67.908  1.00  0.00     0.105 C 
BRANCH  30  31
ATOM     31  SG  CYS B   2       7.755  90.346  69.469  1.00  0.00    -0.180 SA
ATOM     32  HG  CYS B   2       7.161  89.155  69.494  1.00  0.00     0.101 HD
ENDBRANCH  30  31
ENDBRANCH  14  30
ENDBRANCH  12  14
ENDBRANCH   6  10
ENDBRANCH   4   6
ENDBRANCH   1   2
BRANCH   1  33
ATOM     33  CB  GLU B   4       4.088  89.140  59.428  1.00  0.00     0.045 C 
BRANCH  33  34
ATOM     34  CG  GLU B   4       5.529  89.559  59.187  1.00  0.00     0.116 C 
BRANCH  34  35
ATOM     35  CD  GLU B   4       6.333  88.502  58.455  1.00  0.00     0.172 C 
ATOM     36  OE1 GLU B   4       6.842  88.801  57.355  1.00  0.00    -0.648 OA
ATOM     37  OE2 GLU B   4       6.453  87.377  58.982  1.00  0.00    -0.648 OA
ENDBRANCH  34  35
ENDBRANCH  33  34
ENDBRANCH   1  33
BRANCH   1  38
ATOM     38  C   GLU B   4       2.658  87.967  61.107  1.00  0.00     0.241 C 
ATOM     39  O   GLU B   4       1.565  88.050  60.545  1.00  0.00    -0.271 OA
ATOM     40  N   THR B   5       2.984  86.961  61.913  1.00  7.70    -0.344 N 
ATOM     41  H   THR B   5       3.871  86.956  62.332  1.00  0.23     0.163 HD
BRANCH  40  42
ATOM     42  CA  THR B   5       2.061  85.866  62.195  1.00  7.88     0.205 C 
BRANCH  42  43
ATOM     43  CB  THR B   5       2.660  84.536  61.735  1.00  4.05     0.146 C 
ATOM     44  CG2 THR B   5       3.865  84.112  62.546  1.00  3.72     0.042 C 
BRANCH  43  45
ATOM     45  OG1 THR B   5       1.699  83.498  61.821  1.00  7.31    -0.393 OA
ATOM     46  HG1 THR B   5       1.455  83.215  60.938  1.00  0.23     0.210 HD
ENDBRANCH  43  45
ENDBRANCH  42  43
BRANCH  42  47
ATOM     47  C   THR B   5       1.738  85.805  63.684  1.00  7.05     0.243 C 
ATOM     48  N   TRP B   6       2.209  86.798  64.430  1.00  0.00    -0.346 N 
ATOM     49  H   TRP B   6       2.730  87.511  64.004  1.00  0.23     0.163 HD
ATOM     50  O   THR B   5       1.078  84.875  64.148  1.00  6.06    -0.271 OA
BRANCH  48  51
ATOM     51  CA  TRP B   6       1.973  86.853  65.866  1.00  0.00     0.181 C 
BRANCH  51  52
ATOM     52  CB  TRP B   6       2.605  85.641  66.552  1.00  0.00     0.075 C 
BRANCH  52  53
ATOM     53  CG  TRP B   6       1.652  84.915  67.451  1.00  0.00    -0.028 A 
ATOM     54  CD2 TRP B   6       1.378  83.509  67.453  1.00  0.00    -0.002 A 
ATOM     55  CE2 TRP B   6       0.428  83.270  68.464  1.00  0.00     0.042 A 
ATOM     56  CE3 TRP B   6       1.843  82.430  66.696  1.00  0.00     0.014 A 
ATOM     57  CZ2 TRP B   6      -0.063  81.997  68.737  1.00  0.00     0.030 A 
ATOM     58  NE1 TRP B   6       0.139  84.475  69.050  1.00  0.00    -0.365 N 
ATOM     59  CH2 TRP B   6       0.409  80.958  67.982  1.00  0.00     0.002 A 
ATOM     60  CZ3 TRP B   6       1.354  81.165  66.969  1.00  0.00     0.001 A 
ATOM     61  HE1 TRP B   6      -0.493  84.614  69.787  1.00  0.23     0.165 HD
ATOM     62  CD1 TRP B   6       0.878  85.457  68.436  1.00  0.00     0.096 A 
ENDBRANCH  52  53
ENDBRANCH  51  52
BRANCH  51  63
ATOM     63  C   TRP B   6       2.528  88.143  66.461  1.00  0.00     0.241 C 
ATOM     64  N   VAL B   7       1.679  88.865  67.187  1.00  6.11    -0.344 N 
ATOM     65  H   VAL B   7       0.761  88.545  67.305  1.00  0.23     0.163 HD
ATOM     66  O   TRP B   6       3.696  88.478  66.264  1.00  0.00    -0.271 OA
BRANCH  64  67
ATOM     67  CA  VAL B   7       2.079  90.120  67.810  1.00  5.65     0.189 C 
BRANCH  67  68
ATOM     68  CB  VAL B   7       1.510  91.329  67.042  1.00  1.15     0.010 C 
ATOM     69  CG1 VAL B   7       2.585  91.962  66.170  1.00  4.96     0.012 C 
ATOM     70  CG2 VAL B   7       0.309  90.917  66.203  1.00  9.83     0.012 C 
ENDBRANCH  67  68
BRANCH  67  71
ATOM     71  C   VAL B   7       1.614  90.188  69.261  1.00  4.44     0.197 C 
ATOM     72  OXT VAL B   7       0.808  89.326  69.665  1.00  0.00    -0.646 OA
ATOM     73  O   VAL B   7       2.064  91.104  69.982  1.00  0.00    -0.646 OA
ENDBRANCH  67  71
ENDBRANCH  64  67
ENDBRANCH  51  63
ENDBRANCH  48  51
ENDBRANCH  42  47
ENDBRANCH  40  42
ENDBRANCH   1  38
TORSDOF 31
ENDMDL
