MODEL 1
REMARK VINA RESULT:      -3.8      0.000      0.000
REMARK  31 active torsions:
REMARK  status: ('A' for Active; 'I' for Inactive)
REMARK    1  A    between atoms: N_1  and  CA_2 
REMARK    2  A    between atoms: CA_2  and  CB_5 
REMARK    3  A    between atoms: CA_2  and  C_3 
REMARK       I    between atoms: C_3  and  N_14 
REMARK    4  A    between atoms: CB_5  and  CG_6 
REMARK    5  A    between atoms: CG_6  and  CD_7 
REMARK    6  A    between atoms: CD_7  and  CE_8 
REMARK    7  A    between atoms: CE_8  and  NZ_9 
REMARK    8  A    between atoms: N_14  and  CA_15 
REMARK    9  A    between atoms: CA_15  and  C_16 
REMARK   10  A    between atoms: CA_15  and  CB_18 
REMARK       I    between atoms: C_16  and  N_22 
REMARK   11  A    between atoms: CB_18  and  SG_19 
REMARK   12  A    between atoms: N_22  and  CA_23 
REMARK   13  A    between atoms: CA_23  and  CB_26 
REMARK   14  A    between atoms: CA_23  and  C_24 
REMARK       I    between atoms: C_24  and  N_37 
REMARK   15  A    between atoms: CB_26  and  OG1_28 
REMARK   16  A    between atoms: CA_31  and  N_37 
REMARK   17  A    between atoms: CA_31  and  CB_33 
REMARK   18  A    between atoms: CA_31  and  C_32 
REMARK       I    between atoms: C_32  and  N_47 
REMARK   19  A    between atoms: CB_33  and  CG_34 
REMARK   20  A    between atoms: CG_34  and  CD_35 
REMARK   21  A    between atoms: CA_41  and  N_47 
REMARK   22  A    between atoms: CA_41  and  CB_43 
REMARK   23  A    between atoms: CA_41  and  C_42 
REMARK       I    between atoms: C_42  and  N_63 
REMARK   24  A    between atoms: CB_43  and  OG1_49 
REMARK   25  A    between atoms: CA_50  and  CB_52 
REMARK   26  A    between atoms: CA_50  and  N_63 
REMARK   27  A    between atoms: CA_50  and  C_51 
REMARK       I    between atoms: C_51  and  N_72 
REMARK   28  A    between atoms: CB_52  and  CG_53 
REMARK   29  A    between atoms: CA_66  and  N_72 
REMARK   30  A    between atoms: CA_66  and  CB_68 
REMARK   31  A    between atoms: CA_66  and  C_67 
ROOT
ATOM      1  CA  GLU B   4       5.312  92.775  43.847  1.00  0.00     0.177 C 
ENDROOT
BRANCH   1   2
ATOM      2  N   GLU B   4       4.212  93.030  44.774  1.00  0.00    -0.346 N 
ATOM      3  H   GLU B   4       4.170  92.531  45.616  1.00  0.23     0.163 HD
ATOM      4  C   THR B   3       3.258  93.914  44.497  1.00  0.00     0.243 C 
ATOM      5  O   THR B   3       3.259  94.584  43.459  1.00  0.00    -0.271 OA
BRANCH   4   6
ATOM      6  CA  THR B   3       2.173  94.096  45.529  1.00  0.00     0.205 C 
BRANCH   6   7
ATOM      7  N   THR B   3       2.012  95.505  45.877  1.00  0.00    -0.344 N 
ATOM      8  C   CYS B   2       1.325  96.359  45.094  1.00  0.00     0.242 C 
ATOM      9  O   CYS B   2       0.783  96.003  44.051  1.00  0.00    -0.271 OA
ATOM     10  H   THR B   3       2.413  95.838  46.703  1.00  0.00     0.163 HD
BRANCH   8  11
ATOM     11  CA  CYS B   2       1.222  97.780  45.598  1.00  0.00     0.185 C 
BRANCH  11  12
ATOM     12  N   CYS B   2       0.503  97.833  46.868  1.00  0.00    -0.345 N 
ATOM     13  H   CYS B   2      -0.479  97.788  46.866  1.00  0.00     0.163 HD
ATOM     14  C   LYS B   1       1.148  97.941  48.033  1.00  0.00     0.254 C 
ATOM     15  O   LYS B   1       2.382  97.949  48.102  1.00  0.00    -0.271 OA
BRANCH  14  16
ATOM     16  CA  LYS B   1       0.285  98.004  49.271  1.00  0.00     0.350 C 
BRANCH  16  17
ATOM     17  N   LYS B   1       0.121  96.680  49.863  1.00  0.00     0.312 N 
ATOM     18  H   LYS B   1      -0.891  96.359  49.745  1.00  0.00     0.359 HD
ENDBRANCH  16  17
BRANCH  16  19
ATOM     19  CB  LYS B   1       0.896  98.969  50.324  1.00  0.00     0.048 C 
BRANCH  19  20
ATOM     20  CG  LYS B   1       0.318  98.772  51.748  1.00  0.00     0.004 C 
BRANCH  20  21
ATOM     21  CD  LYS B   1       1.239  98.030  52.720  1.00  0.00     0.027 C 
BRANCH  21  22
ATOM     22  CE  LYS B   1       0.512  96.791  53.261  1.00  0.00     0.229 C 
BRANCH  22  23
ATOM     23  NZ  LYS B   1      -0.062  97.097  54.583  1.00  0.00    -0.079 N 
ATOM     24  HZ3 LYS B   1      -0.921  97.601  54.410  1.00  0.00     0.274 HD
ATOM     25  HZ2 LYS B   1       0.583  97.659  55.148  1.00  0.00     0.274 HD
ATOM     26  HZ1 LYS B   1      -0.230  96.235  55.114  1.00  0.00     0.274 HD
ENDBRANCH  22  23
ENDBRANCH  21  22
ENDBRANCH  20  21
ENDBRANCH  19  20
ENDBRANCH  16  19
ENDBRANCH  14  16
ENDBRANCH  11  12
BRANCH  11  27
ATOM     27  CB  CYS B   2       2.603  98.438  45.789  1.00  0.00     0.105 C 
BRANCH  27  28
ATOM     28  SG  CYS B   2       2.505 100.221  45.513  1.00  0.00    -0.180 SA
ATOM     29  HG  CYS B   2       1.178 100.311  45.521  1.00  0.00     0.101 HD
ENDBRANCH  27  28
ENDBRANCH  11  27
ENDBRANCH   8  11
ENDBRANCH   6   7
BRANCH   6  30
ATOM     30  CB  THR B   3       0.817  93.498  45.021  1.00  0.00     0.146 C 
ATOM     31  CG2 THR B   3       0.749  93.138  43.521  1.00  0.00     0.042 C 
BRANCH  30  32
ATOM     32  OG1 THR B   3       0.527  92.280  45.694  1.00  0.00    -0.393 OA
ATOM     33  HG1 THR B   3       0.949  91.585  45.181  1.00  0.00     0.210 HD
ENDBRANCH  30  32
ENDBRANCH   6  30
ENDBRANCH   4   6
ENDBRANCH   1   2
BRANCH   1  34
ATOM     34  CB  GLU B   4       5.984  94.087  43.438  1.00  0.00     0.045 C 
BRANCH  34  35
ATOM     35  CG  GLU B   4       7.197  94.435  44.284  1.00  0.00     0.116 C 
BRANCH  35  36
ATOM     36  CD  GLU B   4       8.037  95.544  43.679  1.00  0.00     0.172 C 
ATOM     37  OE1 GLU B   4       7.489  96.641  43.443  1.00  0.00    -0.648 OA
ATOM     38  OE2 GLU B   4       9.241  95.314  43.440  1.00  0.00    -0.648 OA
ENDBRANCH  35  36
ENDBRANCH  34  35
ENDBRANCH   1  34
BRANCH   1  39
ATOM     39  C   GLU B   4       6.345  91.842  44.471  1.00  0.00     0.241 C 
ATOM     40  O   GLU B   4       6.403  91.693  45.692  1.00  0.00    -0.271 OA
ATOM     41  N   THR B   5       7.160  91.219  43.625  1.00  7.70    -0.344 N 
ATOM     42  H   THR B   5       7.062  91.383  42.663  1.00  0.23     0.163 HD
BRANCH  41  43
ATOM     43  CA  THR B   5       8.197  90.300  44.086  1.00  7.88     0.205 C 
BRANCH  43  44
ATOM     44  CB  THR B   5       7.995  88.917  43.465  1.00  4.05     0.146 C 
ATOM     45  CG2 THR B   5       8.725  87.818  44.205  1.00  3.72     0.042 C 
BRANCH  44  46
ATOM     46  OG1 THR B   5       6.620  88.577  43.438  1.00  7.31    -0.393 OA
ATOM     47  HG1 THR B   5       6.294  88.488  44.336  1.00  0.23     0.210 HD
ENDBRANCH  44  46
ENDBRANCH  43  44
BRANCH  43  48
ATOM     48  C   THR B   5       9.582  90.832  43.732  1.00  7.05     0.243 C 
ATOM     49  N   TRP B   6      10.574  89.949  43.754  1.00  0.00    -0.346 N 
ATOM     50  H   TRP B   6      10.381  89.018  43.989  1.00  0.23     0.163 HD
ATOM     51  O   THR B   5       9.747  92.018  43.448  1.00  6.06    -0.271 OA
BRANCH  49  52
ATOM     52  CA  TRP B   6      11.944  90.333  43.439  1.00  0.00     0.181 C 
BRANCH  52  53
ATOM     53  CB  TRP B   6      12.246  91.722  44.002  1.00  0.00     0.075 C 
BRANCH  53  54
ATOM     54  CG  TRP B   6      12.750  91.684  45.413  1.00  0.00    -0.028 A 
ATOM     55  CD2 TRP B   6      12.018  92.036  46.593  1.00  0.00    -0.002 A 
ATOM     56  CE2 TRP B   6      12.879  91.842  47.690  1.00  0.00     0.042 A 
ATOM     57  CE3 TRP B   6      10.721  92.498  46.828  1.00  0.00     0.014 A 
ATOM     58  CZ2 TRP B   6      12.482  92.093  49.000  1.00  0.00     0.030 A 
ATOM     59  NE1 TRP B   6      14.078  91.393  47.199  1.00  0.00    -0.365 N 
ATOM     60  CH2 TRP B   6      11.206  92.545  49.203  1.00  0.00     0.002 A 
ATOM     61  CZ3 TRP B   6      10.328  92.747  48.131  1.00  0.00     0.001 A 
ATOM     62  HE1 TRP B   6      14.867  91.172  47.736  1.00  0.23     0.165 HD
ATOM     63  CD1 TRP B   6      13.991  91.301  45.831  1.00  0.00     0.096 A 
ENDBRANCH  53  54
ENDBRANCH  52  53
BRANCH  52  64
ATOM     64  C   TRP B   6      12.936  89.314  43.992  1.00  0.00     0.241 C 
ATOM     65  N   VAL B   7      12.421  88.344  44.740  1.00  6.11    -0.344 N 
ATOM     66  H   VAL B   7      11.455  88.325  44.899  1.00  0.23     0.163 HD
ATOM     67  O   TRP B   6      14.139  89.409  43.748  1.00  0.00    -0.271 OA
BRANCH  65  68
ATOM     68  CA  VAL B   7      13.258  87.308  45.333  1.00  5.65     0.189 C 
BRANCH  68  69
ATOM     69  CB  VAL B   7      13.188  87.347  46.872  1.00  1.15     0.010 C 
ATOM     70  CG1 VAL B   7      11.892  88.001  47.331  1.00  4.96     0.012 C 
ATOM     71  CG2 VAL B   7      13.320  85.947  47.452  1.00  9.83     0.012 C 
ENDBRANCH  68  69
BRANCH  68  72
ATOM     72  C   VAL B   7      12.842  85.921  44.850  1.00  4.44     0.197 C 
ATOM     73  OXT VAL B   7      11.979  85.841  43.953  1.00  0.00    -0.646 OA
ATOM     74  O   VAL B   7      13.388  84.927  45.374  1.00  0.00    -0.646 OA
ENDBRANCH  68  72
ENDBRANCH  65  68
ENDBRANCH  52  64
ENDBRANCH  49  52
ENDBRANCH  43  48
ENDBRANCH  41  43
ENDBRANCH   1  39
TORSDOF 31
ENDMDL
