MODEL 1
REMARK VINA RESULT:      -7.0      0.000      0.000
REMARK  32 active torsions:
REMARK  status: ('A' for Active; 'I' for Inactive)
REMARK    1  A    between atoms: N_1  and  CA_2 
REMARK    2  A    between atoms: CA_2  and  CB_5 
REMARK    3  A    between atoms: CA_2  and  C_3 
REMARK       I    between atoms: C_3  and  N_14 
REMARK    4  A    between atoms: CB_5  and  CG_6 
REMARK    5  A    between atoms: CG_6  and  CD_7 
REMARK    6  A    between atoms: CD_7  and  CE_8 
REMARK    7  A    between atoms: CE_8  and  NZ_9 
REMARK    8  A    between atoms: N_14  and  CA_15 
REMARK    9  A    between atoms: CA_15  and  C_16 
REMARK   10  A    between atoms: CA_15  and  CB_18 
REMARK       I    between atoms: C_16  and  N_22 
REMARK   11  A    between atoms: CB_18  and  SG_19 
REMARK   12  A    between atoms: N_22  and  CA_23 
REMARK   13  A    between atoms: CA_23  and  CB_26 
REMARK   14  A    between atoms: CA_23  and  C_24 
REMARK       I    between atoms: C_24  and  N_42 
REMARK   15  A    between atoms: CB_26  and  CG_27 
REMARK   16  A    between atoms: CZ_32  and  OH_33 
REMARK   17  A    between atoms: CA_36  and  N_42 
REMARK   18  A    between atoms: CA_36  and  CB_38 
REMARK   19  A    between atoms: CA_36  and  C_37 
REMARK       I    between atoms: C_37  and  N_52 
REMARK   20  A    between atoms: CB_38  and  CG_39 
REMARK   21  A    between atoms: CG_39  and  CD_40 
REMARK   22  A    between atoms: CA_46  and  N_52 
REMARK   23  A    between atoms: CA_46  and  CB_48 
REMARK   24  A    between atoms: CA_46  and  C_47 
REMARK       I    between atoms: C_47  and  N_68 
REMARK   25  A    between atoms: CB_48  and  OG1_54 
REMARK   26  A    between atoms: CA_55  and  CB_57 
REMARK   27  A    between atoms: CA_55  and  N_68 
REMARK   28  A    between atoms: CA_55  and  C_56 
REMARK       I    between atoms: C_56  and  N_77 
REMARK   29  A    between atoms: CB_57  and  CG_58 
REMARK   30  A    between atoms: CA_71  and  N_77 
REMARK   31  A    between atoms: CA_71  and  CB_73 
REMARK   32  A    between atoms: CA_71  and  C_72 
ROOT
ATOM      1  CA  GLU B   4       6.493  89.487  59.543  1.00  0.00     0.177 C 
ENDROOT
BRANCH   1   2
ATOM      2  N   GLU B   4       7.128  89.298  60.845  1.00  0.00    -0.346 N 
ATOM      3  C   TYR B   3       7.457  90.324  61.629  1.00  0.00     0.241 C 
ATOM      4  O   TYR B   3       7.218  91.499  61.293  1.00  0.00    -0.271 OA
ATOM      5  H   GLU B   4       7.326  88.390  61.154  1.00  0.23     0.163 HD
BRANCH   3   6
ATOM      6  CA  TYR B   3       8.083  90.021  62.968  1.00  0.00     0.180 C 
BRANCH   6   7
ATOM      7  CB  TYR B   3       6.938  89.686  63.970  1.00  0.00     0.073 C 
BRANCH   7   8
ATOM      8  CG  TYR B   3       7.311  88.808  65.171  1.00  0.00    -0.056 A 
ATOM      9  CD1 TYR B   3       8.295  87.822  65.055  1.00  0.00     0.010 A 
ATOM     10  CE1 TYR B   3       8.636  87.042  66.157  1.00  0.00     0.037 A 
ATOM     11  CZ  TYR B   3       7.995  87.241  67.377  1.00  0.00     0.065 A 
ATOM     12  CE2 TYR B   3       7.013  88.222  67.498  1.00  0.00     0.037 A 
ATOM     13  CD2 TYR B   3       6.671  89.002  66.399  1.00  0.00     0.010 A 
BRANCH  11  14
ATOM     14  OH  TYR B   3       8.335  86.476  68.456  1.00  0.00    -0.361 OA
ATOM     15  HH  TYR B   3       8.787  85.690  68.142  1.00  0.00     0.217 HD
ENDBRANCH  11  14
ENDBRANCH   7   8
ENDBRANCH   6   7
BRANCH   6  16
ATOM     16  N   TYR B   3       8.876  91.151  63.443  1.00  0.00    -0.346 N 
ATOM     17  C   CYS B   2      10.110  90.973  63.945  1.00  0.00     0.241 C 
ATOM     18  O   CYS B   2      10.638  89.867  64.027  1.00  0.00    -0.271 OA
ATOM     19  H   TYR B   3       8.503  92.049  63.397  1.00  0.00     0.163 HD
BRANCH  17  20
ATOM     20  CA  CYS B   2      10.834  92.232  64.364  1.00  0.00     0.185 C 
BRANCH  20  21
ATOM     21  CB  CYS B   2      10.046  93.508  64.014  1.00  0.00     0.105 C 
BRANCH  21  22
ATOM     22  SG  CYS B   2      10.486  94.860  65.130  1.00  0.00    -0.180 SA
ATOM     23  HG  CYS B   2       9.760  95.802  64.534  1.00  0.00     0.101 HD
ENDBRANCH  21  22
ENDBRANCH  20  21
BRANCH  20  24
ATOM     24  N   CYS B   2      12.150  92.312  63.736  1.00  0.00    -0.345 N 
ATOM     25  C   LYS B   1      13.272  92.307  64.461  1.00  0.00     0.254 C 
ATOM     26  O   LYS B   1      13.255  92.288  65.697  1.00  0.00    -0.271 OA
ATOM     27  H   CYS B   2      12.212  92.371  62.757  1.00  0.00     0.163 HD
BRANCH  25  28
ATOM     28  CA  LYS B   1      14.568  92.376  63.688  1.00  0.00     0.350 C 
BRANCH  28  29
ATOM     29  N   LYS B   1      14.374  91.951  62.304  1.00  0.00     0.312 N 
ATOM     30  H   LYS B   1      14.704  90.942  62.191  1.00  0.00     0.359 HD
ENDBRANCH  28  29
BRANCH  28  31
ATOM     31  CB  LYS B   1      15.152  93.815  63.710  1.00  0.00     0.048 C 
BRANCH  31  32
ATOM     32  CG  LYS B   1      14.707  94.678  62.504  1.00  0.00     0.004 C 
BRANCH  32  33
ATOM     33  CD  LYS B   1      13.673  95.759  62.832  1.00  0.00     0.027 C 
BRANCH  33  34
ATOM     34  CE  LYS B   1      12.452  95.586  61.917  1.00  0.00     0.229 C 
BRANCH  34  35
ATOM     35  NZ  LYS B   1      12.809  95.983  60.544  1.00  0.00    -0.079 N 
ATOM     36  HZ1 LYS B   1      12.448  95.303  59.865  1.00  0.00     0.274 HD
ATOM     37  HZ3 LYS B   1      13.817  96.037  60.517  1.00  0.00     0.274 HD
ATOM     38  HZ2 LYS B   1      12.388  96.884  60.295  1.00  0.00     0.274 HD
ENDBRANCH  34  35
ENDBRANCH  33  34
ENDBRANCH  32  33
ENDBRANCH  31  32
ENDBRANCH  28  31
ENDBRANCH  25  28
ENDBRANCH  20  24
ENDBRANCH  17  20
ENDBRANCH   6  16
ENDBRANCH   3   6
ENDBRANCH   1   2
BRANCH   1  39
ATOM     39  CB  GLU B   4       6.650  88.233  58.682  1.00  0.00     0.045 C 
BRANCH  39  40
ATOM     40  CG  GLU B   4       7.353  87.092  59.399  1.00  0.00     0.116 C 
BRANCH  40  41
ATOM     41  CD  GLU B   4       6.462  85.879  59.585  1.00  0.00     0.172 C 
ATOM     42  OE1 GLU B   4       6.986  84.812  59.965  1.00  0.00    -0.648 OA
ATOM     43  OE2 GLU B   4       5.242  85.997  59.349  1.00  0.00    -0.648 OA
ENDBRANCH  40  41
ENDBRANCH  39  40
ENDBRANCH   1  39
BRANCH   1  44
ATOM     44  C   GLU B   4       5.012  89.818  59.703  1.00  0.00     0.241 C 
ATOM     45  N   THR B   5       4.185  88.780  59.785  1.00  7.70    -0.344 N 
ATOM     46  H   THR B   5       4.554  87.873  59.739  1.00  0.23     0.163 HD
ATOM     47  O   GLU B   4       4.630  90.988  59.755  1.00  0.00    -0.271 OA
BRANCH  45  48
ATOM     48  CA  THR B   5       2.744  88.952  59.944  1.00  7.88     0.205 C 
BRANCH  48  49
ATOM     49  CB  THR B   5       1.990  88.028  58.985  1.00  4.05     0.146 C 
ATOM     50  CG2 THR B   5       1.316  88.767  57.850  1.00  3.72     0.042 C 
BRANCH  49  51
ATOM     51  OG1 THR B   5       2.869  87.075  58.414  1.00  7.31    -0.393 OA
ATOM     52  HG1 THR B   5       2.461  86.690  57.636  1.00  0.23     0.210 HD
ENDBRANCH  49  51
ENDBRANCH  48  49
BRANCH  48  53
ATOM     53  C   THR B   5       2.324  88.664  61.382  1.00  7.05     0.243 C 
ATOM     54  N   TRP B   6       3.276  88.223  62.196  1.00  0.00    -0.346 N 
ATOM     55  H   TRP B   6       4.185  88.104  61.849  1.00  0.23     0.163 HD
ATOM     56  O   THR B   5       1.160  88.835  61.744  1.00  6.06    -0.271 OA
BRANCH  54  57
ATOM     57  CA  TRP B   6       3.002  87.907  63.592  1.00  0.00     0.181 C 
BRANCH  57  58
ATOM     58  CB  TRP B   6       2.120  88.991  64.214  1.00  0.00     0.075 C 
BRANCH  58  59
ATOM     59  CG  TRP B   6       2.894  89.966  65.047  1.00  0.00    -0.028 A 
ATOM     60  CD2 TRP B   6       3.689  91.059  64.570  1.00  0.00    -0.002 A 
ATOM     61  CE2 TRP B   6       4.224  91.709  65.698  1.00  0.00     0.042 A 
ATOM     62  CE3 TRP B   6       4.000  91.549  63.299  1.00  0.00     0.014 A 
ATOM     63  CZ2 TRP B   6       5.051  92.823  65.591  1.00  0.00     0.030 A 
ATOM     64  NE1 TRP B   6       3.775  91.043  66.809  1.00  0.00    -0.365 N 
ATOM     65  CH2 TRP B   6       5.341  93.282  64.335  1.00  0.00     0.002 A 
ATOM     66  CZ3 TRP B   6       4.823  92.656  63.195  1.00  0.00     0.001 A 
ATOM     67  HE1 TRP B   6       3.988  91.274  67.738  1.00  0.23     0.165 HD
ATOM     68  CD1 TRP B   6       2.977  89.998  66.409  1.00  0.00     0.096 A 
ENDBRANCH  58  59
ENDBRANCH  57  58
BRANCH  57  69
ATOM     69  C   TRP B   6       2.331  86.544  63.721  1.00  0.00     0.241 C 
ATOM     70  N   VAL B   7       2.779  85.592  62.909  1.00  6.11    -0.344 N 
ATOM     71  H   VAL B   7       3.502  85.802  62.281  1.00  0.23     0.163 HD
ATOM     72  O   TRP B   6       1.425  86.361  64.535  1.00  0.00    -0.271 OA
BRANCH  70  73
ATOM     73  CA  VAL B   7       2.223  84.245  62.926  1.00  5.65     0.189 C 
BRANCH  73  74
ATOM     74  CB  VAL B   7       1.578  83.891  61.572  1.00  1.15     0.010 C 
ATOM     75  CG1 VAL B   7       0.633  82.708  61.724  1.00  4.96     0.012 C 
ATOM     76  CG2 VAL B   7       0.847  85.094  60.994  1.00  9.83     0.012 C 
ENDBRANCH  73  74
BRANCH  73  77
ATOM     77  C   VAL B   7       3.295  83.210  63.254  1.00  4.44     0.197 C 
ATOM     78  OXT VAL B   7       4.331  83.191  62.558  1.00  0.00    -0.646 OA
ATOM     79  O   VAL B   7       3.089  82.429  64.205  1.00  0.00    -0.646 OA
ENDBRANCH  73  77
ENDBRANCH  70  73
ENDBRANCH  57  69
ENDBRANCH  54  57
ENDBRANCH  48  53
ENDBRANCH  45  48
ENDBRANCH   1  44
TORSDOF 32
ENDMDL
MODEL 2
REMARK VINA RESULT:      -6.8      1.702      2.318
REMARK  32 active torsions:
REMARK  status: ('A' for Active; 'I' for Inactive)
REMARK    1  A    between atoms: N_1  and  CA_2 
REMARK    2  A    between atoms: CA_2  and  CB_5 
REMARK    3  A    between atoms: CA_2  and  C_3 
REMARK       I    between atoms: C_3  and  N_14 
REMARK    4  A    between atoms: CB_5  and  CG_6 
REMARK    5  A    between atoms: CG_6  and  CD_7 
REMARK    6  A    between atoms: CD_7  and  CE_8 
REMARK    7  A    between atoms: CE_8  and  NZ_9 
REMARK    8  A    between atoms: N_14  and  CA_15 
REMARK    9  A    between atoms: CA_15  and  C_16 
REMARK   10  A    between atoms: CA_15  and  CB_18 
REMARK       I    between atoms: C_16  and  N_22 
REMARK   11  A    between atoms: CB_18  and  SG_19 
REMARK   12  A    between atoms: N_22  and  CA_23 
REMARK   13  A    between atoms: CA_23  and  CB_26 
REMARK   14  A    between atoms: CA_23  and  C_24 
REMARK       I    between atoms: C_24  and  N_42 
REMARK   15  A    between atoms: CB_26  and  CG_27 
REMARK   16  A    between atoms: CZ_32  and  OH_33 
REMARK   17  A    between atoms: CA_36  and  N_42 
REMARK   18  A    between atoms: CA_36  and  CB_38 
REMARK   19  A    between atoms: CA_36  and  C_37 
REMARK       I    between atoms: C_37  and  N_52 
REMARK   20  A    between atoms: CB_38  and  CG_39 
REMARK   21  A    between atoms: CG_39  and  CD_40 
REMARK   22  A    between atoms: CA_46  and  N_52 
REMARK   23  A    between atoms: CA_46  and  CB_48 
REMARK   24  A    between atoms: CA_46  and  C_47 
REMARK       I    between atoms: C_47  and  N_68 
REMARK   25  A    between atoms: CB_48  and  OG1_54 
REMARK   26  A    between atoms: CA_55  and  CB_57 
REMARK   27  A    between atoms: CA_55  and  N_68 
REMARK   28  A    between atoms: CA_55  and  C_56 
REMARK       I    between atoms: C_56  and  N_77 
REMARK   29  A    between atoms: CB_57  and  CG_58 
REMARK   30  A    between atoms: CA_71  and  N_77 
REMARK   31  A    between atoms: CA_71  and  CB_73 
REMARK   32  A    between atoms: CA_71  and  C_72 
ROOT
ATOM      1  CA  GLU B   4       7.049  89.052  59.812  1.00  0.00     0.177 C 
ENDROOT
BRANCH   1   2
ATOM      2  N   GLU B   4       7.818  89.319  61.026  1.00  0.00    -0.346 N 
ATOM      3  C   TYR B   3       7.543  88.723  62.185  1.00  0.00     0.241 C 
ATOM      4  O   TYR B   3       6.622  87.890  62.283  1.00  0.00    -0.271 OA
ATOM      5  H   GLU B   4       8.557  89.960  60.992  1.00  0.23     0.163 HD
BRANCH   3   6
ATOM      6  CA  TYR B   3       8.415  89.046  63.373  1.00  0.00     0.180 C 
BRANCH   6   7
ATOM      7  CB  TYR B   3       7.583  88.792  64.664  1.00  0.00     0.073 C 
BRANCH   7   8
ATOM      8  CG  TYR B   3       8.374  88.492  65.944  1.00  0.00    -0.056 A 
ATOM      9  CD1 TYR B   3       8.360  87.212  66.507  1.00  0.00     0.010 A 
ATOM     10  CE1 TYR B   3       9.094  86.949  67.660  1.00  0.00     0.037 A 
ATOM     11  CZ  TYR B   3       9.841  87.960  68.257  1.00  0.00     0.065 A 
ATOM     12  CE2 TYR B   3       9.857  89.238  67.702  1.00  0.00     0.037 A 
ATOM     13  CD2 TYR B   3       9.125  89.504  66.550  1.00  0.00     0.010 A 
BRANCH  11  14
ATOM     14  OH  TYR B   3      10.562  87.696  69.387  1.00  0.00    -0.361 OA
ATOM     15  HH  TYR B   3      11.336  88.264  69.393  1.00  0.00     0.217 HD
ENDBRANCH  11  14
ENDBRANCH   7   8
ENDBRANCH   6   7
BRANCH   6  16
ATOM     16  N   TYR B   3       8.882  90.429  63.319  1.00  0.00    -0.346 N 
ATOM     17  C   CYS B   2       8.028  91.458  63.468  1.00  0.00     0.241 C 
ATOM     18  O   CYS B   2       6.826  91.297  63.661  1.00  0.00    -0.271 OA
ATOM     19  H   TYR B   3       9.827  90.609  63.171  1.00  0.00     0.163 HD
BRANCH  17  20
ATOM     20  CA  CYS B   2       8.650  92.834  63.428  1.00  0.00     0.185 C 
BRANCH  20  21
ATOM     21  CB  CYS B   2       8.589  93.467  62.025  1.00  0.00     0.105 C 
BRANCH  21  22
ATOM     22  SG  CYS B   2       6.898  93.446  61.386  1.00  0.00    -0.180 SA
ATOM     23  HG  CYS B   2       6.541  92.281  61.921  1.00  0.00     0.101 HD
ENDBRANCH  21  22
ENDBRANCH  20  21
BRANCH  20  24
ATOM     24  N   CYS B   2      10.045  92.790  63.857  1.00  0.00    -0.345 N 
ATOM     25  C   LYS B   1      10.520  93.631  64.780  1.00  0.00     0.254 C 
ATOM     26  O   LYS B   1       9.822  94.520  65.280  1.00  0.00    -0.271 OA
ATOM     27  H   CYS B   2      10.650  92.127  63.457  1.00  0.00     0.163 HD
BRANCH  25  28
ATOM     28  CA  LYS B   1      11.976  93.468  65.148  1.00  0.00     0.350 C 
BRANCH  28  29
ATOM     29  N   LYS B   1      12.242  92.122  65.647  1.00  0.00     0.312 N 
ATOM     30  H   LYS B   1      11.412  91.488  65.424  1.00  0.00     0.359 HD
ENDBRANCH  28  29
BRANCH  28  31
ATOM     31  CB  LYS B   1      12.892  93.757  63.927  1.00  0.00     0.048 C 
BRANCH  31  32
ATOM     32  CG  LYS B   1      12.492  95.033  63.145  1.00  0.00     0.004 C 
BRANCH  32  33
ATOM     33  CD  LYS B   1      13.437  95.411  62.002  1.00  0.00     0.027 C 
BRANCH  33  34
ATOM     34  CE  LYS B   1      12.746  96.436  61.092  1.00  0.00     0.229 C 
BRANCH  34  35
ATOM     35  NZ  LYS B   1      11.287  96.256  61.171  1.00  0.00    -0.079 N 
ATOM     36  HZ1 LYS B   1      10.859  97.002  61.733  1.00  0.00     0.274 HD
ATOM     37  HZ3 LYS B   1      11.134  95.347  61.585  1.00  0.00     0.274 HD
ATOM     38  HZ2 LYS B   1      10.852  96.312  60.244  1.00  0.00     0.274 HD
ENDBRANCH  34  35
ENDBRANCH  33  34
ENDBRANCH  32  33
ENDBRANCH  31  32
ENDBRANCH  28  31
ENDBRANCH  25  28
ENDBRANCH  20  24
ENDBRANCH  17  20
ENDBRANCH   6  16
ENDBRANCH   3   6
ENDBRANCH   1   2
BRANCH   1  39
ATOM     39  CB  GLU B   4       6.960  87.547  59.554  1.00  0.00     0.045 C 
BRANCH  39  40
ATOM     40  CG  GLU B   4       7.039  87.181  58.080  1.00  0.00     0.116 C 
BRANCH  40  41
ATOM     41  CD  GLU B   4       6.368  85.858  57.768  1.00  0.00     0.172 C 
ATOM     42  OE1 GLU B   4       5.268  85.609  58.303  1.00  0.00    -0.648 OA
ATOM     43  OE2 GLU B   4       6.943  85.071  56.987  1.00  0.00    -0.648 OA
ENDBRANCH  40  41
ENDBRANCH  39  40
ENDBRANCH   1  39
BRANCH   1  44
ATOM     44  C   GLU B   4       5.644  89.639  59.918  1.00  0.00     0.241 C 
ATOM     45  N   THR B   5       4.665  88.774  60.166  1.00  7.70    -0.344 N 
ATOM     46  H   THR B   5       4.883  87.824  60.264  1.00  0.23     0.163 HD
ATOM     47  O   GLU B   4       5.455  90.848  59.783  1.00  0.00    -0.271 OA
BRANCH  45  48
ATOM     48  CA  THR B   5       3.274  89.200  60.296  1.00  7.88     0.205 C 
BRANCH  48  49
ATOM     49  CB  THR B   5       2.413  88.533  59.222  1.00  4.05     0.146 C 
ATOM     50  CG2 THR B   5       1.843  89.514  58.220  1.00  3.72     0.042 C 
BRANCH  49  51
ATOM     51  OG1 THR B   5       3.165  87.573  58.502  1.00  7.31    -0.393 OA
ATOM     52  HG1 THR B   5       3.314  86.803  59.055  1.00  0.23     0.210 HD
ENDBRANCH  49  51
ENDBRANCH  48  49
BRANCH  48  53
ATOM     53  C   THR B   5       2.735  88.858  61.681  1.00  7.05     0.243 C 
ATOM     54  N   TRP B   6       3.609  88.349  62.543  1.00  0.00    -0.346 N 
ATOM     55  H   TRP B   6       4.538  88.218  62.262  1.00  0.23     0.163 HD
ATOM     56  O   THR B   5       1.552  89.049  61.961  1.00  6.06    -0.271 OA
BRANCH  54  57
ATOM     57  CA  TRP B   6       3.217  87.978  63.897  1.00  0.00     0.181 C 
BRANCH  57  58
ATOM     58  CB  TRP B   6       2.527  89.154  64.588  1.00  0.00     0.075 C 
BRANCH  58  59
ATOM     59  CG  TRP B   6       3.485  90.058  65.301  1.00  0.00    -0.028 A 
ATOM     60  CD2 TRP B   6       4.302  89.721  66.429  1.00  0.00    -0.002 A 
ATOM     61  CE2 TRP B   6       5.047  90.869  66.761  1.00  0.00     0.042 A 
ATOM     62  CE3 TRP B   6       4.474  88.562  67.190  1.00  0.00     0.014 A 
ATOM     63  CZ2 TRP B   6       5.950  90.888  67.820  1.00  0.00     0.030 A 
ATOM     64  NE1 TRP B   6       4.699  91.856  65.875  1.00  0.00    -0.365 N 
ATOM     65  CH2 TRP B   6       6.099  89.741  68.550  1.00  0.00     0.002 A 
ATOM     66  CZ3 TRP B   6       5.372  88.584  68.243  1.00  0.00     0.001 A 
ATOM     67  HE1 TRP B   6       5.061  92.767  65.866  1.00  0.23     0.165 HD
ATOM     68  CD1 TRP B   6       3.761  91.360  65.003  1.00  0.00     0.096 A 
ENDBRANCH  58  59
ENDBRANCH  57  58
BRANCH  57  69
ATOM     69  C   TRP B   6       2.298  86.761  63.884  1.00  0.00     0.241 C 
ATOM     70  N   VAL B   7       2.753  85.691  63.240  1.00  6.11    -0.344 N 
ATOM     71  H   VAL B   7       3.635  85.729  62.815  1.00  0.23     0.163 HD
ATOM     72  O   TRP B   6       1.200  86.794  64.441  1.00  0.00    -0.271 OA
BRANCH  70  73
ATOM     73  CA  VAL B   7       1.974  84.463  63.149  1.00  5.65     0.189 C 
BRANCH  73  74
ATOM     74  CB  VAL B   7       1.933  83.935  61.701  1.00  1.15     0.010 C 
ATOM     75  CG1 VAL B   7       0.704  83.064  61.485  1.00  4.96     0.012 C 
ATOM     76  CG2 VAL B   7       1.960  85.086  60.708  1.00  9.83     0.012 C 
ENDBRANCH  73  74
BRANCH  73  77
ATOM     77  C   VAL B   7       2.544  83.379  64.059  1.00  4.44     0.197 C 
ATOM     78  OXT VAL B   7       3.475  82.671  63.625  1.00  0.00    -0.646 OA
ATOM     79  O   VAL B   7       2.053  83.250  65.200  1.00  0.00    -0.646 OA
ENDBRANCH  73  77
ENDBRANCH  70  73
ENDBRANCH  57  69
ENDBRANCH  54  57
ENDBRANCH  48  53
ENDBRANCH  45  48
ENDBRANCH   1  44
TORSDOF 32
ENDMDL
MODEL 3
REMARK VINA RESULT:      -5.1      2.441      3.492
REMARK  32 active torsions:
REMARK  status: ('A' for Active; 'I' for Inactive)
REMARK    1  A    between atoms: N_1  and  CA_2 
REMARK    2  A    between atoms: CA_2  and  CB_5 
REMARK    3  A    between atoms: CA_2  and  C_3 
REMARK       I    between atoms: C_3  and  N_14 
REMARK    4  A    between atoms: CB_5  and  CG_6 
REMARK    5  A    between atoms: CG_6  and  CD_7 
REMARK    6  A    between atoms: CD_7  and  CE_8 
REMARK    7  A    between atoms: CE_8  and  NZ_9 
REMARK    8  A    between atoms: N_14  and  CA_15 
REMARK    9  A    between atoms: CA_15  and  C_16 
REMARK   10  A    between atoms: CA_15  and  CB_18 
REMARK       I    between atoms: C_16  and  N_22 
REMARK   11  A    between atoms: CB_18  and  SG_19 
REMARK   12  A    between atoms: N_22  and  CA_23 
REMARK   13  A    between atoms: CA_23  and  CB_26 
REMARK   14  A    between atoms: CA_23  and  C_24 
REMARK       I    between atoms: C_24  and  N_42 
REMARK   15  A    between atoms: CB_26  and  CG_27 
REMARK   16  A    between atoms: CZ_32  and  OH_33 
REMARK   17  A    between atoms: CA_36  and  N_42 
REMARK   18  A    between atoms: CA_36  and  CB_38 
REMARK   19  A    between atoms: CA_36  and  C_37 
REMARK       I    between atoms: C_37  and  N_52 
REMARK   20  A    between atoms: CB_38  and  CG_39 
REMARK   21  A    between atoms: CG_39  and  CD_40 
REMARK   22  A    between atoms: CA_46  and  N_52 
REMARK   23  A    between atoms: CA_46  and  CB_48 
REMARK   24  A    between atoms: CA_46  and  C_47 
REMARK       I    between atoms: C_47  and  N_68 
REMARK   25  A    between atoms: CB_48  and  OG1_54 
REMARK   26  A    between atoms: CA_55  and  CB_57 
REMARK   27  A    between atoms: CA_55  and  N_68 
REMARK   28  A    between atoms: CA_55  and  C_56 
REMARK       I    between atoms: C_56  and  N_77 
REMARK   29  A    between atoms: CB_57  and  CG_58 
REMARK   30  A    between atoms: CA_71  and  N_77 
REMARK   31  A    between atoms: CA_71  and  CB_73 
REMARK   32  A    between atoms: CA_71  and  C_72 
ROOT
ATOM      1  CA  GLU B   4       6.163  88.248  60.464  1.00  0.00     0.177 C 
ENDROOT
BRANCH   1   2
ATOM      2  N   GLU B   4       6.745  88.874  61.649  1.00  0.00    -0.346 N 
ATOM      3  C   TYR B   3       6.301  88.615  62.878  1.00  0.00     0.241 C 
ATOM      4  O   TYR B   3       5.373  87.807  63.074  1.00  0.00    -0.271 OA
ATOM      5  H   GLU B   4       7.483  89.509  61.542  1.00  0.23     0.163 HD
BRANCH   3   6
ATOM      6  CA  TYR B   3       6.988  89.291  64.039  1.00  0.00     0.180 C 
BRANCH   6   7
ATOM      7  CB  TYR B   3       6.214  88.921  65.338  1.00  0.00     0.073 C 
BRANCH   7   8
ATOM      8  CG  TYR B   3       6.981  89.061  66.659  1.00  0.00    -0.056 A 
ATOM      9  CD1 TYR B   3       7.316  87.930  67.411  1.00  0.00     0.010 A 
ATOM     10  CE1 TYR B   3       8.027  88.068  68.600  1.00  0.00     0.037 A 
ATOM     11  CZ  TYR B   3       8.402  89.333  69.045  1.00  0.00     0.065 A 
ATOM     12  CE2 TYR B   3       8.070  90.463  68.301  1.00  0.00     0.037 A 
ATOM     13  CD2 TYR B   3       7.360  90.327  67.112  1.00  0.00     0.010 A 
BRANCH  11  14
ATOM     14  OH  TYR B   3       9.102  89.464  70.211  1.00  0.00    -0.361 OA
ATOM     15  HH  TYR B   3       9.448  88.603  70.456  1.00  0.00     0.217 HD
ENDBRANCH  11  14
ENDBRANCH   7   8
ENDBRANCH   6   7
BRANCH   6  16
ATOM     16  N   TYR B   3       7.030  90.738  63.852  1.00  0.00    -0.346 N 
ATOM     17  C   CYS B   2       5.906  91.444  63.633  1.00  0.00     0.241 C 
ATOM     18  O   CYS B   2       4.796  90.921  63.583  1.00  0.00    -0.271 OA
ATOM     19  H   TYR B   3       7.886  91.200  63.885  1.00  0.00     0.163 HD
BRANCH  17  20
ATOM     20  CA  CYS B   2       6.088  92.937  63.494  1.00  0.00     0.185 C 
BRANCH  20  21
ATOM     21  CB  CYS B   2       5.991  93.409  62.030  1.00  0.00     0.105 C 
BRANCH  21  22
ATOM     22  SG  CYS B   2       4.422  94.256  61.733  1.00  0.00    -0.180 SA
ATOM     23  HG  CYS B   2       3.872  93.311  60.974  1.00  0.00     0.101 HD
ENDBRANCH  21  22
ENDBRANCH  20  21
BRANCH  20  24
ATOM     24  N   CYS B   2       7.378  93.359  64.033  1.00  0.00    -0.345 N 
ATOM     25  C   LYS B   1       8.499  93.272  63.311  1.00  0.00     0.254 C 
ATOM     26  O   LYS B   1       8.512  92.785  62.175  1.00  0.00    -0.271 OA
ATOM     27  H   CYS B   2       7.423  93.715  64.948  1.00  0.00     0.163 HD
BRANCH  25  28
ATOM     28  CA  LYS B   1       9.763  93.759  63.979  1.00  0.00     0.350 C 
BRANCH  28  29
ATOM     29  N   LYS B   1       9.538  94.019  65.398  1.00  0.00     0.312 N 
ATOM     30  H   LYS B   1       8.967  94.914  65.511  1.00  0.00     0.359 HD
ENDBRANCH  28  29
BRANCH  28  31
ATOM     31  CB  LYS B   1      10.910  92.724  63.818  1.00  0.00     0.048 C 
BRANCH  31  32
ATOM     32  CG  LYS B   1      11.860  92.663  65.041  1.00  0.00     0.004 C 
BRANCH  32  33
ATOM     33  CD  LYS B   1      12.070  91.262  65.623  1.00  0.00     0.027 C 
BRANCH  33  34
ATOM     34  CE  LYS B   1      10.714  90.553  65.739  1.00  0.00     0.229 C 
BRANCH  34  35
ATOM     35  NZ  LYS B   1      10.683  89.402  64.821  1.00  0.00    -0.079 N 
ATOM     36  HZ1 LYS B   1      11.087  89.653  63.910  1.00  0.00     0.274 HD
ATOM     37  HZ3 LYS B   1       9.713  89.132  64.735  1.00  0.00     0.274 HD
ATOM     38  HZ2 LYS B   1      11.248  88.624  65.178  1.00  0.00     0.274 HD
ENDBRANCH  34  35
ENDBRANCH  33  34
ENDBRANCH  32  33
ENDBRANCH  31  32
ENDBRANCH  28  31
ENDBRANCH  25  28
ENDBRANCH  20  24
ENDBRANCH  17  20
ENDBRANCH   6  16
ENDBRANCH   3   6
ENDBRANCH   1   2
BRANCH   1  39
ATOM     39  CB  GLU B   4       6.419  86.741  60.472  1.00  0.00     0.045 C 
BRANCH  39  40
ATOM     40  CG  GLU B   4       7.293  86.269  59.321  1.00  0.00     0.116 C 
BRANCH  40  41
ATOM     41  CD  GLU B   4       6.486  85.743  58.149  1.00  0.00     0.172 C 
ATOM     42  OE1 GLU B   4       7.098  85.375  57.126  1.00  0.00    -0.648 OA
ATOM     43  OE2 GLU B   4       5.243  85.700  58.257  1.00  0.00    -0.648 OA
ENDBRANCH  40  41
ENDBRANCH  39  40
ENDBRANCH   1  39
BRANCH   1  44
ATOM     44  C   GLU B   4       4.663  88.516  60.389  1.00  0.00     0.241 C 
ATOM     45  N   THR B   5       3.870  87.469  60.598  1.00  7.70    -0.344 N 
ATOM     46  H   THR B   5       4.275  86.596  60.785  1.00  0.23     0.163 HD
ATOM     47  O   GLU B   4       4.236  89.646  60.151  1.00  0.00    -0.271 OA
BRANCH  45  48
ATOM     48  CA  THR B   5       2.415  87.583  60.560  1.00  7.88     0.205 C 
BRANCH  48  49
ATOM     49  CB  THR B   5       1.835  86.627  59.517  1.00  4.05     0.146 C 
ATOM     50  CG2 THR B   5       1.606  87.279  58.171  1.00  3.72     0.042 C 
BRANCH  49  51
ATOM     51  OG1 THR B   5       2.698  85.521  59.317  1.00  7.31    -0.393 OA
ATOM     52  HG1 THR B   5       2.208  84.802  58.913  1.00  0.23     0.210 HD
ENDBRANCH  49  51
ENDBRANCH  48  49
BRANCH  48  53
ATOM     53  C   THR B   5       1.817  87.283  61.931  1.00  7.05     0.243 C 
ATOM     54  N   TRP B   6       2.682  87.062  62.915  1.00  0.00    -0.346 N 
ATOM     55  H   TRP B   6       3.642  87.101  62.725  1.00  0.23     0.163 HD
ATOM     56  O   THR B   5       0.597  87.249  62.092  1.00  6.06    -0.271 OA
BRANCH  54  57
ATOM     57  CA  TRP B   6       2.236  86.761  64.269  1.00  0.00     0.181 C 
BRANCH  57  58
ATOM     58  CB  TRP B   6       1.254  87.829  64.752  1.00  0.00     0.075 C 
BRANCH  58  59
ATOM     59  CG  TRP B   6       1.927  88.960  65.469  1.00  0.00    -0.028 A 
ATOM     60  CD2 TRP B   6       2.680  88.876  66.685  1.00  0.00    -0.002 A 
ATOM     61  CE2 TRP B   6       3.131  90.175  66.985  1.00  0.00     0.042 A 
ATOM     62  CE3 TRP B   6       3.015  87.830  67.548  1.00  0.00     0.014 A 
ATOM     63  CZ2 TRP B   6       3.901  90.453  68.112  1.00  0.00     0.030 A 
ATOM     64  NE1 TRP B   6       2.674  91.009  65.998  1.00  0.00    -0.365 N 
ATOM     65  CH2 TRP B   6       4.214  89.411  68.940  1.00  0.00     0.002 A 
ATOM     66  CZ3 TRP B   6       3.779  88.108  68.667  1.00  0.00     0.001 A 
ATOM     67  HE1 TRP B   6       2.836  91.975  65.946  1.00  0.23     0.165 HD
ATOM     68  CD1 TRP B   6       1.952  90.271  65.091  1.00  0.00     0.096 A 
ENDBRANCH  58  59
ENDBRANCH  57  58
BRANCH  57  69
ATOM     69  C   TRP B   6       1.588  85.382  64.336  1.00  0.00     0.241 C 
ATOM     70  N   VAL B   7       2.319  84.369  63.880  1.00  6.11    -0.344 N 
ATOM     71  H   VAL B   7       3.217  84.548  63.532  1.00  0.23     0.163 HD
ATOM     72  O   TRP B   6       0.451  85.240  64.786  1.00  0.00    -0.271 OA
BRANCH  70  73
ATOM     73  CA  VAL B   7       1.819  83.001  63.882  1.00  5.65     0.189 C 
BRANCH  73  74
ATOM     74  CB  VAL B   7       1.739  82.434  62.451  1.00  1.15     0.010 C 
ATOM     75  CG1 VAL B   7       1.089  81.057  62.458  1.00  4.96     0.012 C 
ATOM     76  CG2 VAL B   7       0.979  83.384  61.538  1.00  9.83     0.012 C 
ENDBRANCH  73  74
BRANCH  73  77
ATOM     77  C   VAL B   7       2.704  82.092  64.730  1.00  4.44     0.197 C 
ATOM     78  OXT VAL B   7       3.829  81.782  64.288  1.00  0.00    -0.646 OA
ATOM     79  O   VAL B   7       2.262  81.699  65.830  1.00  0.00    -0.646 OA
ENDBRANCH  73  77
ENDBRANCH  70  73
ENDBRANCH  57  69
ENDBRANCH  54  57
ENDBRANCH  48  53
ENDBRANCH  45  48
ENDBRANCH   1  44
TORSDOF 32
ENDMDL
