MODEL 1
REMARK VINA RESULT:      -6.1      0.000      0.000
REMARK  31 active torsions:
REMARK  status: ('A' for Active; 'I' for Inactive)
REMARK    1  A    between atoms: N_1  and  CA_2 
REMARK    2  A    between atoms: CA_2  and  CB_5 
REMARK    3  A    between atoms: CA_2  and  C_3 
REMARK       I    between atoms: C_3  and  N_14 
REMARK    4  A    between atoms: CB_5  and  CG_6 
REMARK    5  A    between atoms: CG_6  and  CD_7 
REMARK    6  A    between atoms: CD_7  and  CE_8 
REMARK    7  A    between atoms: CE_8  and  NZ_9 
REMARK    8  A    between atoms: N_14  and  CA_15 
REMARK    9  A    between atoms: CA_15  and  CB_18 
REMARK   10  A    between atoms: CA_15  and  C_16 
REMARK       I    between atoms: C_16  and  N_22 
REMARK   11  A    between atoms: CB_18  and  SG_19 
REMARK   12  A    between atoms: N_22  and  CA_23 
REMARK   13  A    between atoms: CA_23  and  CB_26 
REMARK   14  A    between atoms: CA_23  and  C_24 
REMARK       I    between atoms: C_24  and  N_37 
REMARK   15  A    between atoms: CB_26  and  CG_27 
REMARK   16  A    between atoms: CA_31  and  N_37 
REMARK   17  A    between atoms: CA_31  and  CB_33 
REMARK   18  A    between atoms: CA_31  and  C_32 
REMARK       I    between atoms: C_32  and  N_47 
REMARK   19  A    between atoms: CB_33  and  CG_34 
REMARK   20  A    between atoms: CG_34  and  CD_35 
REMARK   21  A    between atoms: CA_41  and  N_47 
REMARK   22  A    between atoms: CA_41  and  CB_43 
REMARK   23  A    between atoms: CA_41  and  C_42 
REMARK       I    between atoms: C_42  and  N_63 
REMARK   24  A    between atoms: CB_43  and  OG1_49 
REMARK   25  A    between atoms: CA_50  and  CB_52 
REMARK   26  A    between atoms: CA_50  and  N_63 
REMARK   27  A    between atoms: CA_50  and  C_51 
REMARK       I    between atoms: C_51  and  N_72 
REMARK   28  A    between atoms: CB_52  and  CG_53 
REMARK   29  A    between atoms: CA_66  and  N_72 
REMARK   30  A    between atoms: CA_66  and  CB_68 
REMARK   31  A    between atoms: CA_66  and  C_67 
ROOT
ATOM      1  CA  GLU B   4       4.922  90.494  64.288  1.00  0.00     0.177 C 
ENDROOT
BRANCH   1   2
ATOM      2  N   GLU B   4       6.145  90.293  65.063  1.00  0.00    -0.346 N 
ATOM      3  C   LEU B   3       6.515  91.145  66.016  1.00  0.00     0.241 C 
ATOM      4  O   LEU B   3       5.863  92.160  66.283  1.00  0.00    -0.271 OA
ATOM      5  H   GLU B   4       6.701  89.507  64.884  1.00  0.23     0.163 HD
BRANCH   3   6
ATOM      6  CA  LEU B   3       7.799  90.840  66.746  1.00  0.00     0.177 C 
BRANCH   6   7
ATOM      7  N   LEU B   3       8.825  91.832  66.435  1.00  0.00    -0.346 N 
ATOM      8  C   CYS B   2       9.602  91.737  65.339  1.00  0.00     0.241 C 
ATOM      9  O   CYS B   2       9.486  90.821  64.530  1.00  0.00    -0.271 OA
ATOM     10  H   LEU B   3       8.951  92.589  67.042  1.00  0.00     0.163 HD
BRANCH   8  11
ATOM     11  CA  CYS B   2      10.603  92.851  65.139  1.00  0.00     0.185 C 
BRANCH  11  12
ATOM     12  N   CYS B   2      11.784  92.371  64.427  1.00  0.00    -0.345 N 
ATOM     13  H   CYS B   2      11.768  92.326  63.445  1.00  0.00     0.163 HD
ATOM     14  C   LYS B   1      12.887  91.992  65.079  1.00  0.00     0.254 C 
ATOM     15  O   LYS B   1      12.986  92.076  66.308  1.00  0.00    -0.271 OA
BRANCH  14  16
ATOM     16  CA  LYS B   1      14.032  91.498  64.224  1.00  0.00     0.350 C 
BRANCH  16  17
ATOM     17  N   LYS B   1      13.557  91.070  62.912  1.00  0.00     0.312 N 
ATOM     18  H   LYS B   1      14.253  90.381  62.487  1.00  0.00     0.359 HD
ENDBRANCH  16  17
BRANCH  16  19
ATOM     19  CB  LYS B   1      15.110  92.602  64.050  1.00  0.00     0.048 C 
BRANCH  19  20
ATOM     20  CG  LYS B   1      15.251  93.100  62.590  1.00  0.00     0.004 C 
BRANCH  20  21
ATOM     21  CD  LYS B   1      14.764  94.532  62.349  1.00  0.00     0.027 C 
BRANCH  21  22
ATOM     22  CE  LYS B   1      15.199  95.419  63.525  1.00  0.00     0.229 C 
BRANCH  22  23
ATOM     23  NZ  LYS B   1      16.600  95.831  63.336  1.00  0.00    -0.079 N 
ATOM     24  HZ3 LYS B   1      17.037  95.107  62.783  1.00  0.00     0.274 HD
ATOM     25  HZ2 LYS B   1      17.081  95.945  64.234  1.00  0.00     0.274 HD
ATOM     26  HZ1 LYS B   1      16.649  96.744  62.868  1.00  0.00     0.274 HD
ENDBRANCH  22  23
ENDBRANCH  21  22
ENDBRANCH  20  21
ENDBRANCH  19  20
ENDBRANCH  16  19
ENDBRANCH  14  16
ENDBRANCH  11  12
BRANCH  11  27
ATOM     27  CB  CYS B   2      10.011  94.041  64.360  1.00  0.00     0.105 C 
BRANCH  27  28
ATOM     28  SG  CYS B   2      11.167  94.617  63.095  1.00  0.00    -0.180 SA
ATOM     29  HG  CYS B   2      10.685  95.852  62.989  1.00  0.00     0.101 HD
ENDBRANCH  27  28
ENDBRANCH  11  27
ENDBRANCH   8  11
ENDBRANCH   6   7
BRANCH   6  30
ATOM     30  CB  LEU B   3       7.561  90.763  68.281  1.00  0.00     0.038 C 
BRANCH  30  31
ATOM     31  CG  LEU B   3       8.311  89.666  69.084  1.00  0.00    -0.020 C 
ATOM     32  CD2 LEU B   3       8.696  90.125  70.500  1.00  0.00     0.009 C 
ATOM     33  CD1 LEU B   3       9.568  89.222  68.323  1.00  0.00     0.009 C 
ENDBRANCH  30  31
ENDBRANCH   6  30
ENDBRANCH   3   6
ENDBRANCH   1   2
BRANCH   1  34
ATOM     34  CB  GLU B   4       5.226  90.476  62.790  1.00  0.00     0.045 C 
BRANCH  34  35
ATOM     35  CG  GLU B   4       4.932  91.796  62.097  1.00  0.00     0.116 C 
BRANCH  35  36
ATOM     36  CD  GLU B   4       5.712  92.955  62.688  1.00  0.00     0.172 C 
ATOM     37  OE2 GLU B   4       6.919  92.782  62.957  1.00  0.00    -0.648 OA
ATOM     38  OE1 GLU B   4       5.115  94.034  62.882  1.00  0.00    -0.648 OA
ENDBRANCH  35  36
ENDBRANCH  34  35
ENDBRANCH   1  34
BRANCH   1  39
ATOM     39  C   GLU B   4       3.888  89.422  64.617  1.00  0.00     0.241 C 
ATOM     40  N   THR B   5       3.195  88.941  63.589  1.00  7.70    -0.344 N 
ATOM     41  H   THR B   5       3.375  89.289  62.690  1.00  0.23     0.163 HD
ATOM     42  O   GLU B   4       3.725  89.037  65.776  1.00  0.00    -0.271 OA
BRANCH  40  43
ATOM     43  CA  THR B   5       2.177  87.908  63.759  1.00  7.88     0.205 C 
BRANCH  43  44
ATOM     44  CB  THR B   5       0.807  88.439  63.334  1.00  4.05     0.146 C 
ATOM     45  CG2 THR B   5       0.109  89.228  64.421  1.00  3.72     0.042 C 
BRANCH  44  46
ATOM     46  OG1 THR B   5       0.925  89.281  62.201  1.00  7.31    -0.393 OA
ATOM     47  HG1 THR B   5       0.064  89.390  61.792  1.00  0.23     0.210 HD
ENDBRANCH  44  46
ENDBRANCH  43  44
BRANCH  43  48
ATOM     48  C   THR B   5       2.529  86.667  62.945  1.00  7.05     0.243 C 
ATOM     49  N   TRP B   6       2.910  86.876  61.690  1.00  0.00    -0.346 N 
ATOM     50  H   TRP B   6       2.950  87.793  61.347  1.00  0.23     0.163 HD
ATOM     51  O   THR B   5       2.454  85.545  63.444  1.00  6.06    -0.271 OA
BRANCH  49  52
ATOM     52  CA  TRP B   6       3.269  85.773  60.808  1.00  0.00     0.181 C 
BRANCH  52  53
ATOM     53  CB  TRP B   6       2.820  86.073  59.377  1.00  0.00     0.075 C 
BRANCH  53  54
ATOM     54  CG  TRP B   6       2.274  87.458  59.215  1.00  0.00    -0.028 A 
ATOM     55  CD2 TRP B   6       3.032  88.664  59.052  1.00  0.00    -0.002 A 
ATOM     56  CE2 TRP B   6       2.111  89.721  58.930  1.00  0.00     0.042 A 
ATOM     57  CE3 TRP B   6       4.399  88.950  59.000  1.00  0.00     0.014 A 
ATOM     58  CZ2 TRP B   6       2.515  91.042  58.757  1.00  0.00     0.030 A 
ATOM     59  NE1 TRP B   6       0.853  89.184  59.013  1.00  0.00    -0.365 N 
ATOM     60  CH2 TRP B   6       3.859  91.295  58.710  1.00  0.00     0.002 A 
ATOM     61  CZ3 TRP B   6       4.798  90.263  58.829  1.00  0.00     0.001 A 
ATOM     62  HE1 TRP B   6       0.013  89.687  58.960  1.00  0.23     0.165 HD
ATOM     63  CD1 TRP B   6       0.960  87.825  59.185  1.00  0.00     0.096 A 
ENDBRANCH  53  54
ENDBRANCH  52  53
BRANCH  52  64
ATOM     64  C   TRP B   6       4.772  85.513  60.843  1.00  0.00     0.241 C 
ATOM     65  N   VAL B   7       5.490  86.109  59.896  1.00  6.11    -0.344 N 
ATOM     66  H   VAL B   7       5.036  86.674  59.238  1.00  0.23     0.163 HD
ATOM     67  O   TRP B   6       5.267  84.787  61.706  1.00  0.00    -0.271 OA
BRANCH  65  68
ATOM     68  CA  VAL B   7       6.936  85.943  59.813  1.00  5.65     0.189 C 
BRANCH  68  69
ATOM     69  CB  VAL B   7       7.350  85.331  58.460  1.00  1.15     0.010 C 
ATOM     70  CG1 VAL B   7       7.648  83.847  58.614  1.00  4.96     0.012 C 
ATOM     71  CG2 VAL B   7       6.268  85.559  57.415  1.00  9.83     0.012 C 
ENDBRANCH  68  69
BRANCH  68  72
ATOM     72  C   VAL B   7       7.655  87.276  59.999  1.00  4.44     0.197 C 
ATOM     73  OXT VAL B   7       8.101  87.555  61.131  1.00  0.00    -0.646 OA
ATOM     74  O   VAL B   7       7.768  88.027  59.008  1.00  0.00    -0.646 OA
ENDBRANCH  68  72
ENDBRANCH  65  68
ENDBRANCH  52  64
ENDBRANCH  49  52
ENDBRANCH  43  48
ENDBRANCH  40  43
ENDBRANCH   1  39
TORSDOF 31
ENDMDL
MODEL 2
REMARK VINA RESULT:      -5.9      2.217      3.783
REMARK  31 active torsions:
REMARK  status: ('A' for Active; 'I' for Inactive)
REMARK    1  A    between atoms: N_1  and  CA_2 
REMARK    2  A    between atoms: CA_2  and  CB_5 
REMARK    3  A    between atoms: CA_2  and  C_3 
REMARK       I    between atoms: C_3  and  N_14 
REMARK    4  A    between atoms: CB_5  and  CG_6 
REMARK    5  A    between atoms: CG_6  and  CD_7 
REMARK    6  A    between atoms: CD_7  and  CE_8 
REMARK    7  A    between atoms: CE_8  and  NZ_9 
REMARK    8  A    between atoms: N_14  and  CA_15 
REMARK    9  A    between atoms: CA_15  and  CB_18 
REMARK   10  A    between atoms: CA_15  and  C_16 
REMARK       I    between atoms: C_16  and  N_22 
REMARK   11  A    between atoms: CB_18  and  SG_19 
REMARK   12  A    between atoms: N_22  and  CA_23 
REMARK   13  A    between atoms: CA_23  and  CB_26 
REMARK   14  A    between atoms: CA_23  and  C_24 
REMARK       I    between atoms: C_24  and  N_37 
REMARK   15  A    between atoms: CB_26  and  CG_27 
REMARK   16  A    between atoms: CA_31  and  N_37 
REMARK   17  A    between atoms: CA_31  and  CB_33 
REMARK   18  A    between atoms: CA_31  and  C_32 
REMARK       I    between atoms: C_32  and  N_47 
REMARK   19  A    between atoms: CB_33  and  CG_34 
REMARK   20  A    between atoms: CG_34  and  CD_35 
REMARK   21  A    between atoms: CA_41  and  N_47 
REMARK   22  A    between atoms: CA_41  and  CB_43 
REMARK   23  A    between atoms: CA_41  and  C_42 
REMARK       I    between atoms: C_42  and  N_63 
REMARK   24  A    between atoms: CB_43  and  OG1_49 
REMARK   25  A    between atoms: CA_50  and  CB_52 
REMARK   26  A    between atoms: CA_50  and  N_63 
REMARK   27  A    between atoms: CA_50  and  C_51 
REMARK       I    between atoms: C_51  and  N_72 
REMARK   28  A    between atoms: CB_52  and  CG_53 
REMARK   29  A    between atoms: CA_66  and  N_72 
REMARK   30  A    between atoms: CA_66  and  CB_68 
REMARK   31  A    between atoms: CA_66  and  C_67 
ROOT
ATOM      1  CA  GLU B   4       4.468  91.403  62.149  1.00  0.00     0.177 C 
ENDROOT
BRANCH   1   2
ATOM      2  N   GLU B   4       5.611  91.117  63.014  1.00  0.00    -0.346 N 
ATOM      3  C   LEU B   3       5.905  91.888  64.059  1.00  0.00     0.241 C 
ATOM      4  O   LEU B   3       5.247  92.895  64.341  1.00  0.00    -0.271 OA
ATOM      5  H   GLU B   4       6.169  90.334  62.828  1.00  0.23     0.163 HD
BRANCH   3   6
ATOM      6  CA  LEU B   3       7.111  91.500  64.878  1.00  0.00     0.177 C 
BRANCH   6   7
ATOM      7  N   LEU B   3       8.240  92.383  64.595  1.00  0.00    -0.346 N 
ATOM      8  C   CYS B   2       9.516  91.981  64.748  1.00  0.00     0.241 C 
ATOM      9  O   CYS B   2       9.808  90.847  65.119  1.00  0.00    -0.271 OA
ATOM     10  H   LEU B   3       8.063  93.294  64.285  1.00  0.00     0.163 HD
BRANCH   8  11
ATOM     11  CA  CYS B   2      10.577  92.998  64.394  1.00  0.00     0.185 C 
BRANCH  11  12
ATOM     12  N   CYS B   2      11.835  92.342  64.048  1.00  0.00    -0.345 N 
ATOM     13  H   CYS B   2      11.959  91.989  63.139  1.00  0.00     0.163 HD
ATOM     14  C   LYS B   1      12.822  92.211  64.939  1.00  0.00     0.254 C 
ATOM     15  O   LYS B   1      12.745  92.681  66.079  1.00  0.00    -0.271 OA
BRANCH  14  16
ATOM     16  CA  LYS B   1      14.064  91.497  64.460  1.00  0.00     0.350 C 
BRANCH  16  17
ATOM     17  N   LYS B   1      13.772  90.663  63.297  1.00  0.00     0.312 N 
ATOM     18  H   LYS B   1      12.904  90.072  63.491  1.00  0.00     0.359 HD
ENDBRANCH  16  17
BRANCH  16  19
ATOM     19  CB  LYS B   1      15.184  92.511  64.100  1.00  0.00     0.048 C 
BRANCH  19  20
ATOM     20  CG  LYS B   1      15.015  93.142  62.695  1.00  0.00     0.004 C 
BRANCH  20  21
ATOM     21  CD  LYS B   1      15.749  94.471  62.494  1.00  0.00     0.027 C 
BRANCH  21  22
ATOM     22  CE  LYS B   1      15.312  95.460  63.583  1.00  0.00     0.229 C 
BRANCH  22  23
ATOM     23  NZ  LYS B   1      16.463  96.287  63.984  1.00  0.00    -0.079 N 
ATOM     24  HZ3 LYS B   1      16.907  95.804  64.752  1.00  0.00     0.274 HD
ATOM     25  HZ2 LYS B   1      16.168  97.227  64.266  1.00  0.00     0.274 HD
ATOM     26  HZ1 LYS B   1      17.109  96.416  63.196  1.00  0.00     0.274 HD
ENDBRANCH  22  23
ENDBRANCH  21  22
ENDBRANCH  20  21
ENDBRANCH  19  20
ENDBRANCH  16  19
ENDBRANCH  14  16
ENDBRANCH  11  12
BRANCH  11  27
ATOM     27  CB  CYS B   2      10.157  93.901  63.218  1.00  0.00     0.105 C 
BRANCH  27  28
ATOM     28  SG  CYS B   2      11.435  95.129  62.866  1.00  0.00    -0.180 SA
ATOM     29  HG  CYS B   2      12.312  94.293  62.316  1.00  0.00     0.101 HD
ENDBRANCH  27  28
ENDBRANCH  11  27
ENDBRANCH   8  11
ENDBRANCH   6   7
BRANCH   6  30
ATOM     30  CB  LEU B   3       6.777  91.510  66.396  1.00  0.00     0.038 C 
BRANCH  30  31
ATOM     31  CG  LEU B   3       6.927  90.182  67.187  1.00  0.00    -0.020 C 
ATOM     32  CD2 LEU B   3       5.804  89.178  66.881  1.00  0.00     0.009 C 
ATOM     33  CD1 LEU B   3       6.970  90.468  68.695  1.00  0.00     0.009 C 
ENDBRANCH  30  31
ENDBRANCH   6  30
ENDBRANCH   3   6
ENDBRANCH   1   2
BRANCH   1  34
ATOM     34  CB  GLU B   4       4.868  91.291  60.678  1.00  0.00     0.045 C 
BRANCH  34  35
ATOM     35  CG  GLU B   4       4.569  92.545  59.873  1.00  0.00     0.116 C 
BRANCH  35  36
ATOM     36  CD  GLU B   4       5.612  93.629  60.066  1.00  0.00     0.172 C 
ATOM     37  OE2 GLU B   4       5.899  94.356  59.093  1.00  0.00    -0.648 OA
ATOM     38  OE1 GLU B   4       6.141  93.749  61.190  1.00  0.00    -0.648 OA
ENDBRANCH  35  36
ENDBRANCH  34  35
ENDBRANCH   1  34
BRANCH   1  39
ATOM     39  C   GLU B   4       3.313  90.450  62.443  1.00  0.00     0.241 C 
ATOM     40  N   THR B   5       2.697  89.933  61.384  1.00  7.70    -0.344 N 
ATOM     41  H   THR B   5       3.004  90.181  60.487  1.00  0.23     0.163 HD
ATOM     42  O   GLU B   4       2.991  90.188  63.602  1.00  0.00    -0.271 OA
BRANCH  40  43
ATOM     43  CA  THR B   5       1.578  89.005  61.519  1.00  7.88     0.205 C 
BRANCH  43  44
ATOM     44  CB  THR B   5       0.826  88.883  60.192  1.00  4.05     0.146 C 
ATOM     45  CG2 THR B   5       1.616  89.398  59.009  1.00  3.72     0.042 C 
BRANCH  44  46
ATOM     46  OG1 THR B   5       0.490  87.533  59.929  1.00  7.31    -0.393 OA
ATOM     47  HG1 THR B   5       1.021  87.208  59.199  1.00  0.23     0.210 HD
ENDBRANCH  44  46
ENDBRANCH  43  44
BRANCH  43  48
ATOM     48  C   THR B   5       2.070  87.631  61.965  1.00  7.05     0.243 C 
ATOM     49  N   TRP B   6       2.972  87.047  61.184  1.00  0.00    -0.346 N 
ATOM     50  H   TRP B   6       3.277  87.510  60.376  1.00  0.23     0.163 HD
ATOM     51  O   THR B   5       1.639  87.112  62.994  1.00  6.06    -0.271 OA
BRANCH  49  52
ATOM     52  CA  TRP B   6       3.518  85.733  61.499  1.00  0.00     0.181 C 
BRANCH  52  53
ATOM     53  CB  TRP B   6       2.713  84.644  60.789  1.00  0.00     0.075 C 
BRANCH  53  54
ATOM     54  CG  TRP B   6       1.793  83.903  61.712  1.00  0.00    -0.028 A 
ATOM     55  CD2 TRP B   6       2.173  82.992  62.750  1.00  0.00    -0.002 A 
ATOM     56  CE2 TRP B   6       0.988  82.541  63.362  1.00  0.00     0.042 A 
ATOM     57  CE3 TRP B   6       3.399  82.513  63.219  1.00  0.00     0.014 A 
ATOM     58  CZ2 TRP B   6       0.996  81.637  64.420  1.00  0.00     0.030 A 
ATOM     59  NE1 TRP B   6      -0.062  83.151  62.726  1.00  0.00    -0.365 N 
ATOM     60  CH2 TRP B   6       2.209  81.183  64.860  1.00  0.00     0.002 A 
ATOM     61  CZ3 TRP B   6       3.404  81.614  64.271  1.00  0.00     0.001 A 
ATOM     62  HE1 TRP B   6      -1.010  83.025  62.942  1.00  0.23     0.165 HD
ATOM     63  CD1 TRP B   6       0.430  83.966  61.736  1.00  0.00     0.096 A 
ENDBRANCH  53  54
ENDBRANCH  52  53
BRANCH  52  64
ATOM     64  C   TRP B   6       4.988  85.644  61.101  1.00  0.00     0.241 C 
ATOM     65  N   VAL B   7       5.525  86.751  60.597  1.00  6.11    -0.344 N 
ATOM     66  H   VAL B   7       4.970  87.553  60.508  1.00  0.23     0.163 HD
ATOM     67  O   TRP B   6       5.618  84.596  61.244  1.00  0.00    -0.271 OA
BRANCH  65  68
ATOM     68  CA  VAL B   7       6.919  86.801  60.174  1.00  5.65     0.189 C 
BRANCH  68  69
ATOM     69  CB  VAL B   7       7.032  87.062  58.659  1.00  1.15     0.010 C 
ATOM     70  CG1 VAL B   7       6.542  85.856  57.871  1.00  4.96     0.012 C 
ATOM     71  CG2 VAL B   7       6.257  88.312  58.269  1.00  9.83     0.012 C 
ENDBRANCH  68  69
BRANCH  68  72
ATOM     72  C   VAL B   7       7.684  87.887  60.926  1.00  4.44     0.197 C 
ATOM     73  OXT VAL B   7       7.047  88.638  61.691  1.00  0.00    -0.646 OA
ATOM     74  O   VAL B   7       8.916  87.973  60.742  1.00  0.00    -0.646 OA
ENDBRANCH  68  72
ENDBRANCH  65  68
ENDBRANCH  52  64
ENDBRANCH  49  52
ENDBRANCH  43  48
ENDBRANCH  40  43
ENDBRANCH   1  39
TORSDOF 31
ENDMDL
MODEL 3
REMARK VINA RESULT:      -5.4      2.879      4.829
REMARK  31 active torsions:
REMARK  status: ('A' for Active; 'I' for Inactive)
REMARK    1  A    between atoms: N_1  and  CA_2 
REMARK    2  A    between atoms: CA_2  and  CB_5 
REMARK    3  A    between atoms: CA_2  and  C_3 
REMARK       I    between atoms: C_3  and  N_14 
REMARK    4  A    between atoms: CB_5  and  CG_6 
REMARK    5  A    between atoms: CG_6  and  CD_7 
REMARK    6  A    between atoms: CD_7  and  CE_8 
REMARK    7  A    between atoms: CE_8  and  NZ_9 
REMARK    8  A    between atoms: N_14  and  CA_15 
REMARK    9  A    between atoms: CA_15  and  CB_18 
REMARK   10  A    between atoms: CA_15  and  C_16 
REMARK       I    between atoms: C_16  and  N_22 
REMARK   11  A    between atoms: CB_18  and  SG_19 
REMARK   12  A    between atoms: N_22  and  CA_23 
REMARK   13  A    between atoms: CA_23  and  CB_26 
REMARK   14  A    between atoms: CA_23  and  C_24 
REMARK       I    between atoms: C_24  and  N_37 
REMARK   15  A    between atoms: CB_26  and  CG_27 
REMARK   16  A    between atoms: CA_31  and  N_37 
REMARK   17  A    between atoms: CA_31  and  CB_33 
REMARK   18  A    between atoms: CA_31  and  C_32 
REMARK       I    between atoms: C_32  and  N_47 
REMARK   19  A    between atoms: CB_33  and  CG_34 
REMARK   20  A    between atoms: CG_34  and  CD_35 
REMARK   21  A    between atoms: CA_41  and  N_47 
REMARK   22  A    between atoms: CA_41  and  CB_43 
REMARK   23  A    between atoms: CA_41  and  C_42 
REMARK       I    between atoms: C_42  and  N_63 
REMARK   24  A    between atoms: CB_43  and  OG1_49 
REMARK   25  A    between atoms: CA_50  and  CB_52 
REMARK   26  A    between atoms: CA_50  and  N_63 
REMARK   27  A    between atoms: CA_50  and  C_51 
REMARK       I    between atoms: C_51  and  N_72 
REMARK   28  A    between atoms: CB_52  and  CG_53 
REMARK   29  A    between atoms: CA_66  and  N_72 
REMARK   30  A    between atoms: CA_66  and  CB_68 
REMARK   31  A    between atoms: CA_66  and  C_67 
ROOT
ATOM      1  CA  GLU B   4       4.590  91.837  62.151  1.00  0.00     0.177 C 
ENDROOT
BRANCH   1   2
ATOM      2  N   GLU B   4       5.431  92.178  63.296  1.00  0.00    -0.346 N 
ATOM      3  C   LEU B   3       6.477  91.430  63.640  1.00  0.00     0.241 C 
ATOM      4  O   LEU B   3       6.782  90.400  63.029  1.00  0.00    -0.271 OA
ATOM      5  H   GLU B   4       5.227  92.981  63.818  1.00  0.23     0.163 HD
BRANCH   3   6
ATOM      6  CA  LEU B   3       7.271  91.876  64.843  1.00  0.00     0.177 C 
BRANCH   6   7
ATOM      7  N   LEU B   3       8.343  90.930  65.142  1.00  0.00    -0.346 N 
ATOM      8  C   CYS B   2       8.660  90.585  66.405  1.00  0.00     0.241 C 
ATOM      9  O   CYS B   2       8.060  91.034  67.378  1.00  0.00    -0.271 OA
ATOM     10  H   LEU B   3       8.844  90.534  64.401  1.00  0.00     0.163 HD
BRANCH   8  11
ATOM     11  CA  CYS B   2       9.776  89.577  66.554  1.00  0.00     0.185 C 
BRANCH  11  12
ATOM     12  N   CYS B   2      11.081  90.229  66.492  1.00  0.00    -0.345 N 
ATOM     13  H   CYS B   2      11.551  90.445  67.328  1.00  0.00     0.163 HD
ATOM     14  C   LYS B   1      11.652  90.540  65.325  1.00  0.00     0.254 C 
ATOM     15  O   LYS B   1      11.134  90.246  64.242  1.00  0.00    -0.271 OA
BRANCH  14  16
ATOM     16  CA  LYS B   1      12.995  91.229  65.400  1.00  0.00     0.350 C 
BRANCH  16  17
ATOM     17  N   LYS B   1      13.681  90.902  66.647  1.00  0.00     0.312 N 
ATOM     18  H   LYS B   1      13.701  89.843  66.777  1.00  0.00     0.359 HD
ENDBRANCH  16  17
BRANCH  16  19
ATOM     19  CB  LYS B   1      13.892  90.830  64.196  1.00  0.00     0.048 C 
BRANCH  19  20
ATOM     20  CG  LYS B   1      15.003  91.864  63.888  1.00  0.00     0.004 C 
BRANCH  20  21
ATOM     21  CD  LYS B   1      14.895  92.536  62.516  1.00  0.00     0.027 C 
BRANCH  21  22
ATOM     22  CE  LYS B   1      14.981  94.059  62.691  1.00  0.00     0.229 C 
BRANCH  22  23
ATOM     23  NZ  LYS B   1      13.834  94.694  62.019  1.00  0.00    -0.079 N 
ATOM     24  HZ3 LYS B   1      13.361  93.961  61.510  1.00  0.00     0.274 HD
ATOM     25  HZ2 LYS B   1      14.139  95.440  61.386  1.00  0.00     0.274 HD
ATOM     26  HZ1 LYS B   1      13.212  95.138  62.705  1.00  0.00     0.274 HD
ENDBRANCH  22  23
ENDBRANCH  21  22
ENDBRANCH  20  21
ENDBRANCH  19  20
ENDBRANCH  16  19
ENDBRANCH  14  16
ENDBRANCH  11  12
BRANCH  11  27
ATOM     27  CB  CYS B   2       9.685  88.790  67.876  1.00  0.00     0.105 C 
BRANCH  27  28
ATOM     28  SG  CYS B   2       8.772  87.248  67.641  1.00  0.00    -0.180 SA
ATOM     29  HG  CYS B   2       7.791  87.511  68.500  1.00  0.00     0.101 HD
ENDBRANCH  27  28
ENDBRANCH  11  27
ENDBRANCH   8  11
ENDBRANCH   6   7
BRANCH   6  30
ATOM     30  CB  LEU B   3       7.847  93.304  64.631  1.00  0.00     0.038 C 
BRANCH  30  31
ATOM     31  CG  LEU B   3       9.384  93.456  64.470  1.00  0.00    -0.020 C 
ATOM     32  CD2 LEU B   3       9.946  94.663  65.240  1.00  0.00     0.009 C 
ATOM     33  CD1 LEU B   3       9.751  93.575  62.984  1.00  0.00     0.009 C 
ENDBRANCH  30  31
ENDBRANCH   6  30
ENDBRANCH   3   6
ENDBRANCH   1   2
BRANCH   1  34
ATOM     34  CB  GLU B   4       5.403  91.880  60.856  1.00  0.00     0.045 C 
BRANCH  34  35
ATOM     35  CG  GLU B   4       5.151  93.128  60.026  1.00  0.00     0.116 C 
BRANCH  35  36
ATOM     36  CD  GLU B   4       6.361  94.039  59.955  1.00  0.00     0.172 C 
ATOM     37  OE2 GLU B   4       6.399  94.906  59.057  1.00  0.00    -0.648 OA
ATOM     38  OE1 GLU B   4       7.270  93.885  60.796  1.00  0.00    -0.648 OA
ENDBRANCH  35  36
ENDBRANCH  34  35
ENDBRANCH   1  34
BRANCH   1  39
ATOM     39  C   GLU B   4       3.971  90.453  62.324  1.00  0.00     0.241 C 
ATOM     40  N   THR B   5       3.543  90.151  63.546  1.00  7.70    -0.344 N 
ATOM     41  H   THR B   5       3.643  90.814  64.262  1.00  0.23     0.163 HD
ATOM     42  O   GLU B   4       3.881  89.679  61.370  1.00  0.00    -0.271 OA
BRANCH  40  43
ATOM     43  CA  THR B   5       2.927  88.864  63.853  1.00  7.88     0.205 C 
BRANCH  43  44
ATOM     44  CB  THR B   5       1.460  88.861  63.420  1.00  4.05     0.146 C 
ATOM     45  CG2 THR B   5       0.546  89.560  64.401  1.00  3.72     0.042 C 
BRANCH  44  46
ATOM     46  OG1 THR B   5       1.308  89.497  62.163  1.00  7.31    -0.393 OA
ATOM     47  HG1 THR B   5       0.647  90.189  62.233  1.00  0.23     0.210 HD
ENDBRANCH  44  46
ENDBRANCH  43  44
BRANCH  43  48
ATOM     48  C   THR B   5       3.677  87.731  63.159  1.00  7.05     0.243 C 
ATOM     49  N   TRP B   6       2.931  86.842  62.512  1.00  0.00    -0.346 N 
ATOM     50  H   TRP B   6       1.957  86.948  62.506  1.00  0.23     0.163 HD
ATOM     51  O   THR B   5       4.904  87.663  63.213  1.00  6.06    -0.271 OA
BRANCH  49  52
ATOM     52  CA  TRP B   6       3.527  85.710  61.813  1.00  0.00     0.181 C 
BRANCH  52  53
ATOM     53  CB  TRP B   6       2.537  84.546  61.753  1.00  0.00     0.075 C 
BRANCH  53  54
ATOM     54  CG  TRP B   6       2.346  83.873  63.078  1.00  0.00    -0.028 A 
ATOM     55  CD2 TRP B   6       2.113  82.478  63.304  1.00  0.00    -0.002 A 
ATOM     56  CE2 TRP B   6       2.002  82.294  64.695  1.00  0.00     0.042 A 
ATOM     57  CE3 TRP B   6       1.988  81.367  62.465  1.00  0.00     0.014 A 
ATOM     58  CZ2 TRP B   6       1.772  81.045  65.264  1.00  0.00     0.030 A 
ATOM     59  NE1 TRP B   6       2.159  83.521  65.287  1.00  0.00    -0.365 N 
ATOM     60  CH2 TRP B   6       1.652  79.974  64.421  1.00  0.00     0.002 A 
ATOM     61  CZ3 TRP B   6       1.759  80.127  63.033  1.00  0.00     0.001 A 
ATOM     62  HE1 TRP B   6       2.130  83.697  66.251  1.00  0.23     0.165 HD
ATOM     63  CD1 TRP B   6       2.366  84.463  64.308  1.00  0.00     0.096 A 
ENDBRANCH  53  54
ENDBRANCH  52  53
BRANCH  52  64
ATOM     64  C   TRP B   6       3.959  86.106  60.405  1.00  0.00     0.241 C 
ATOM     65  N   VAL B   7       5.270  86.185  60.196  1.00  6.11    -0.344 N 
ATOM     66  H   VAL B   7       5.883  85.989  60.934  1.00  0.23     0.163 HD
ATOM     67  O   TRP B   6       3.124  86.338  59.530  1.00  0.00    -0.271 OA
BRANCH  65  68
ATOM     68  CA  VAL B   7       5.818  86.555  58.897  1.00  5.65     0.189 C 
BRANCH  68  69
ATOM     69  CB  VAL B   7       6.697  87.817  59.003  1.00  1.15     0.010 C 
ATOM     70  CG1 VAL B   7       5.925  89.045  58.542  1.00  4.96     0.012 C 
ATOM     71  CG2 VAL B   7       7.204  88.001  60.425  1.00  9.83     0.012 C 
ENDBRANCH  68  69
BRANCH  68  72
ATOM     72  C   VAL B   7       6.646  85.419  58.304  1.00  4.44     0.197 C 
ATOM     73  OXT VAL B   7       6.794  85.380  57.066  1.00  0.00    -0.646 OA
ATOM     74  O   VAL B   7       7.139  84.579  59.085  1.00  0.00    -0.646 OA
ENDBRANCH  68  72
ENDBRANCH  65  68
ENDBRANCH  52  64
ENDBRANCH  49  52
ENDBRANCH  43  48
ENDBRANCH  40  43
ENDBRANCH   1  39
TORSDOF 31
ENDMDL
MODEL 4
REMARK VINA RESULT:      -4.6      1.995      2.772
REMARK  31 active torsions:
REMARK  status: ('A' for Active; 'I' for Inactive)
REMARK    1  A    between atoms: N_1  and  CA_2 
REMARK    2  A    between atoms: CA_2  and  CB_5 
REMARK    3  A    between atoms: CA_2  and  C_3 
REMARK       I    between atoms: C_3  and  N_14 
REMARK    4  A    between atoms: CB_5  and  CG_6 
REMARK    5  A    between atoms: CG_6  and  CD_7 
REMARK    6  A    between atoms: CD_7  and  CE_8 
REMARK    7  A    between atoms: CE_8  and  NZ_9 
REMARK    8  A    between atoms: N_14  and  CA_15 
REMARK    9  A    between atoms: CA_15  and  CB_18 
REMARK   10  A    between atoms: CA_15  and  C_16 
REMARK       I    between atoms: C_16  and  N_22 
REMARK   11  A    between atoms: CB_18  and  SG_19 
REMARK   12  A    between atoms: N_22  and  CA_23 
REMARK   13  A    between atoms: CA_23  and  CB_26 
REMARK   14  A    between atoms: CA_23  and  C_24 
REMARK       I    between atoms: C_24  and  N_37 
REMARK   15  A    between atoms: CB_26  and  CG_27 
REMARK   16  A    between atoms: CA_31  and  N_37 
REMARK   17  A    between atoms: CA_31  and  CB_33 
REMARK   18  A    between atoms: CA_31  and  C_32 
REMARK       I    between atoms: C_32  and  N_47 
REMARK   19  A    between atoms: CB_33  and  CG_34 
REMARK   20  A    between atoms: CG_34  and  CD_35 
REMARK   21  A    between atoms: CA_41  and  N_47 
REMARK   22  A    between atoms: CA_41  and  CB_43 
REMARK   23  A    between atoms: CA_41  and  C_42 
REMARK       I    between atoms: C_42  and  N_63 
REMARK   24  A    between atoms: CB_43  and  OG1_49 
REMARK   25  A    between atoms: CA_50  and  CB_52 
REMARK   26  A    between atoms: CA_50  and  N_63 
REMARK   27  A    between atoms: CA_50  and  C_51 
REMARK       I    between atoms: C_51  and  N_72 
REMARK   28  A    between atoms: CB_52  and  CG_53 
REMARK   29  A    between atoms: CA_66  and  N_72 
REMARK   30  A    between atoms: CA_66  and  CB_68 
REMARK   31  A    between atoms: CA_66  and  C_67 
ROOT
ATOM      1  CA  GLU B   4       3.925  90.551  63.796  1.00  0.00     0.177 C 
ENDROOT
BRANCH   1   2
ATOM      2  N   GLU B   4       5.168  90.865  64.497  1.00  0.00    -0.346 N 
ATOM      3  C   LEU B   3       5.191  91.690  65.541  1.00  0.00     0.241 C 
ATOM      4  O   LEU B   3       4.173  92.251  65.960  1.00  0.00    -0.271 OA
ATOM      5  H   GLU B   4       6.004  90.451  64.198  1.00  0.23     0.163 HD
BRANCH   3   6
ATOM      6  CA  LEU B   3       6.532  91.945  66.183  1.00  0.00     0.177 C 
BRANCH   6   7
ATOM      7  N   LEU B   3       7.430  90.810  65.986  1.00  0.00    -0.346 N 
ATOM      8  C   CYS B   2       8.173  90.304  66.989  1.00  0.00     0.241 C 
ATOM      9  O   CYS B   2       8.130  90.756  68.130  1.00  0.00    -0.271 OA
ATOM     10  H   LEU B   3       7.492  90.404  65.097  1.00  0.00     0.163 HD
BRANCH   8  11
ATOM     11  CA  CYS B   2       9.036  89.114  66.638  1.00  0.00     0.185 C 
BRANCH  11  12
ATOM     12  N   CYS B   2      10.358  89.542  66.190  1.00  0.00    -0.345 N 
ATOM     13  H   CYS B   2      11.099  89.569  66.837  1.00  0.00     0.163 HD
ATOM     14  C   LYS B   1      10.586  89.897  64.923  1.00  0.00     0.254 C 
ATOM     15  O   LYS B   1       9.709  89.832  64.055  1.00  0.00    -0.271 OA
BRANCH  14  16
ATOM     16  CA  LYS B   1      11.994  90.337  64.595  1.00  0.00     0.350 C 
BRANCH  16  17
ATOM     17  N   LYS B   1      12.283  90.152  63.176  1.00  0.00     0.312 N 
ATOM     18  H   LYS B   1      11.443  89.699  62.696  1.00  0.00     0.359 HD
ENDBRANCH  16  17
BRANCH  16  19
ATOM     19  CB  LYS B   1      12.213  91.826  64.978  1.00  0.00     0.048 C 
BRANCH  19  20
ATOM     20  CG  LYS B   1      12.719  92.696  63.801  1.00  0.00     0.004 C 
BRANCH  20  21
ATOM     21  CD  LYS B   1      12.928  94.176  64.138  1.00  0.00     0.027 C 
BRANCH  21  22
ATOM     22  CE  LYS B   1      12.600  95.027  62.903  1.00  0.00     0.229 C 
BRANCH  22  23
ATOM     23  NZ  LYS B   1      13.663  94.860  61.897  1.00  0.00    -0.079 N 
ATOM     24  HZ3 LYS B   1      14.344  95.583  62.080  1.00  0.00     0.274 HD
ATOM     25  HZ2 LYS B   1      13.291  94.941  60.945  1.00  0.00     0.274 HD
ATOM     26  HZ1 LYS B   1      14.079  93.923  61.961  1.00  0.00     0.274 HD
ENDBRANCH  22  23
ENDBRANCH  21  22
ENDBRANCH  20  21
ENDBRANCH  19  20
ENDBRANCH  16  19
ENDBRANCH  14  16
ENDBRANCH  11  12
BRANCH  11  27
ATOM     27  CB  CYS B   2       9.209  88.143  67.822  1.00  0.00     0.105 C 
BRANCH  27  28
ATOM     28  SG  CYS B   2       8.494  86.529  67.436  1.00  0.00    -0.180 SA
ATOM     29  HG  CYS B   2       9.393  85.797  68.089  1.00  0.00     0.101 HD
ENDBRANCH  27  28
ENDBRANCH  11  27
ENDBRANCH   8  11
ENDBRANCH   6   7
BRANCH   6  30
ATOM     30  CB  LEU B   3       7.173  93.250  65.629  1.00  0.00     0.038 C 
BRANCH  30  31
ATOM     31  CG  LEU B   3       8.551  93.145  64.921  1.00  0.00    -0.020 C 
ATOM     32  CD2 LEU B   3       9.470  94.337  65.230  1.00  0.00     0.009 C 
ATOM     33  CD1 LEU B   3       8.356  93.020  63.403  1.00  0.00     0.009 C 
ENDBRANCH  30  31
ENDBRANCH   6  30
ENDBRANCH   3   6
ENDBRANCH   1   2
BRANCH   1  34
ATOM     34  CB  GLU B   4       4.146  90.557  62.283  1.00  0.00     0.045 C 
BRANCH  34  35
ATOM     35  CG  GLU B   4       5.262  91.488  61.839  1.00  0.00     0.116 C 
BRANCH  35  36
ATOM     36  CD  GLU B   4       4.818  92.936  61.753  1.00  0.00     0.172 C 
ATOM     37  OE2 GLU B   4       4.345  93.348  60.673  1.00  0.00    -0.648 OA
ATOM     38  OE1 GLU B   4       4.944  93.656  62.765  1.00  0.00    -0.648 OA
ENDBRANCH  35  36
ENDBRANCH  34  35
ENDBRANCH   1  34
BRANCH   1  39
ATOM     39  C   GLU B   4       3.384  89.192  64.232  1.00  0.00     0.241 C 
ATOM     40  N   THR B   5       2.470  88.643  63.437  1.00  7.70    -0.344 N 
ATOM     41  H   THR B   5       2.192  89.124  62.629  1.00  0.23     0.163 HD
ATOM     42  O   GLU B   4       3.789  88.654  65.263  1.00  0.00    -0.271 OA
BRANCH  40  43
ATOM     43  CA  THR B   5       1.871  87.344  63.731  1.00  7.88     0.205 C 
BRANCH  43  44
ATOM     44  CB  THR B   5       0.364  87.384  63.469  1.00  4.05     0.146 C 
ATOM     45  CG2 THR B   5      -0.063  88.555  62.611  1.00  3.72     0.042 C 
BRANCH  44  46
ATOM     46  OG1 THR B   5      -0.062  86.199  62.821  1.00  7.31    -0.393 OA
ATOM     47  HG1 THR B   5      -0.310  86.401  61.916  1.00  0.23     0.210 HD
ENDBRANCH  44  46
ENDBRANCH  43  44
BRANCH  43  48
ATOM     48  C   THR B   5       2.517  86.251  62.886  1.00  7.05     0.243 C 
ATOM     49  N   TRP B   6       2.909  86.603  61.667  1.00  0.00    -0.346 N 
ATOM     50  H   TRP B   6       2.771  87.526  61.368  1.00  0.23     0.163 HD
ATOM     51  O   THR B   5       2.655  85.111  63.330  1.00  6.06    -0.271 OA
BRANCH  49  52
ATOM     52  CA  TRP B   6       3.536  85.649  60.761  1.00  0.00     0.181 C 
BRANCH  52  53
ATOM     53  CB  TRP B   6       2.901  85.743  59.373  1.00  0.00     0.075 C 
BRANCH  53  54
ATOM     54  CG  TRP B   6       2.054  86.966  59.200  1.00  0.00    -0.028 A 
ATOM     55  CD2 TRP B   6       2.517  88.308  59.005  1.00  0.00    -0.002 A 
ATOM     56  CE2 TRP B   6       1.379  89.128  58.883  1.00  0.00     0.042 A 
ATOM     57  CE3 TRP B   6       3.783  88.895  58.924  1.00  0.00     0.014 A 
ATOM     58  CZ2 TRP B   6       1.471  90.503  58.683  1.00  0.00     0.030 A 
ATOM     59  NE1 TRP B   6       0.276  88.322  58.998  1.00  0.00    -0.365 N 
ATOM     60  CH2 TRP B   6       2.722  91.052  58.607  1.00  0.00     0.002 A 
ATOM     61  CZ3 TRP B   6       3.872  90.261  58.725  1.00  0.00     0.001 A 
ATOM     62  HE1 TRP B   6      -0.656  88.622  58.952  1.00  0.23     0.165 HD
ATOM     63  CD1 TRP B   6       0.690  87.026  59.188  1.00  0.00     0.096 A 
ENDBRANCH  53  54
ENDBRANCH  52  53
BRANCH  52  64
ATOM     64  C   TRP B   6       5.039  85.893  60.669  1.00  0.00     0.241 C 
ATOM     65  N   VAL B   7       5.579  85.760  59.461  1.00  6.11    -0.344 N 
ATOM     66  H   VAL B   7       5.005  85.521  58.705  1.00  0.23     0.163 HD
ATOM     67  O   TRP B   6       5.693  86.189  61.669  1.00  0.00    -0.271 OA
BRANCH  65  68
ATOM     68  CA  VAL B   7       7.005  85.962  59.233  1.00  5.65     0.189 C 
BRANCH  68  69
ATOM     69  CB  VAL B   7       7.507  85.106  58.054  1.00  1.15     0.010 C 
ATOM     70  CG1 VAL B   7       7.770  83.676  58.506  1.00  4.96     0.012 C 
ATOM     71  CG2 VAL B   7       6.510  85.133  56.906  1.00  9.83     0.012 C 
ENDBRANCH  68  69
BRANCH  68  72
ATOM     72  C   VAL B   7       7.316  87.429  58.953  1.00  4.44     0.197 C 
ATOM     73  OXT VAL B   7       7.854  88.103  59.855  1.00  0.00    -0.646 OA
ATOM     74  O   VAL B   7       7.020  87.890  57.831  1.00  0.00    -0.646 OA
ENDBRANCH  68  72
ENDBRANCH  65  68
ENDBRANCH  52  64
ENDBRANCH  49  52
ENDBRANCH  43  48
ENDBRANCH  40  43
ENDBRANCH   1  39
TORSDOF 31
ENDMDL
