REMARK  24 active torsions:
REMARK  status: ('A' for Active; 'I' for Inactive)
REMARK    1  A    between atoms: N_1  and  CA_2 
REMARK    2  A    between atoms: CB_5  and  CG_6 
REMARK    3  A    between atoms: CG_6  and  CD_7 
REMARK    4  A    between atoms: CD_7  and  CE_8 
REMARK    5  A    between atoms: CE_8  and  NZ_9 
REMARK    6  A    between atoms: CA_16  and  CB_19 
REMARK    7  A    between atoms: CB_19  and  SG_20 
REMARK    8  A    between atoms: CA_24  and  C_25 
REMARK       I    between atoms: C_25  and  N_46 
REMARK    9  A    between atoms: CA_40  and  N_46 
REMARK   10  A    between atoms: CA_40  and  CB_42 
REMARK   11  A    between atoms: CA_40  and  C_41 
REMARK       I    between atoms: C_41  and  N_56 
REMARK   12  A    between atoms: CB_42  and  CG_43 
REMARK   13  A    between atoms: CG_43  and  CD_44 
REMARK   14  A    between atoms: CA_50  and  N_56 
REMARK   15  A    between atoms: CA_50  and  CB_52 
REMARK   16  A    between atoms: CA_50  and  C_51 
REMARK       I    between atoms: C_51  and  N_72 
REMARK   17  A    between atoms: CB_52  and  OG1_58 
REMARK   18  A    between atoms: CA_59  and  CB_61 
REMARK   19  A    between atoms: CA_59  and  N_72 
REMARK   20  A    between atoms: CA_59  and  C_60 
REMARK       I    between atoms: C_60  and  N_81 
REMARK   21  A    between atoms: CB_61  and  CG_62 
REMARK   22  A    between atoms: CA_75  and  N_81 
REMARK   23  A    between atoms: CA_75  and  CB_77 
REMARK   24  A    between atoms: CA_75  and  C_76 
ROOT
ATOM      1  CA  GLU B   4       2.935  -2.082  -1.427  1.00  0.00     0.177 C 
ENDROOT
BRANCH   1   2
ATOM      2  N   GLU B   4       2.719  -3.266  -0.598  1.00  0.00    -0.346 N 
ATOM      3  C   ARG B   3       3.737  -3.999  -0.162  1.00  0.00     0.241 C 
ATOM      4  O   ARG B   3       4.909  -3.750  -0.448  1.00  0.00    -0.271 OA
ATOM      5  H   GLU B   4       1.805  -3.516  -0.349  1.00  0.23     0.163 HD
BRANCH   3   6
ATOM      6  CA  ARG B   3       3.403  -5.206   0.683  1.00  0.00     0.176 C 
ATOM      7  CB  ARG B   3       2.938  -6.402  -0.196  1.00  0.00     0.036 C 
ATOM      8  CG  ARG B   3       3.183  -7.813   0.410  1.00  0.00     0.022 C 
ATOM      9  CD  ARG B   3       1.992  -8.292   1.257  1.00  0.00     0.121 C 
ATOM     10  NE  ARG B   3       0.861  -8.674   0.361  1.00  0.00    -0.374 N 
ATOM     11  CZ  ARG B   3      -0.378  -8.946   0.760  1.00  0.00     0.139 C 
ATOM     12  HE  ARG B   3       0.993  -8.750  -0.653  1.00  0.00     0.161 HD
ATOM     13  NH2 ARG B   3      -1.256  -9.270  -0.136  1.00  0.00    -0.383 N 
ATOM     14  NH1 ARG B   3      -0.760  -8.906   2.006  1.00  0.00     0.000 N 
ATOM     15 2HH2 ARG B   3      -2.201  -9.478   0.191  1.00  0.00     0.157 HD
ATOM     16 1HH2 ARG B   3      -0.939  -9.296  -1.107  1.00  0.00     0.157 HD
ATOM     17 2HH1 ARG B   3      -1.730  -9.130   2.231  1.00  0.00     0.027 HD
ATOM     18 1HH1 ARG B   3      -0.021  -8.642   2.661  1.00  0.00     0.000 HD
ATOM     19  HB2 LYS B   1      -0.534  -9.152   2.797  1.00  0.00     0.000 HD
ATOM     20  CB  LYS B   1      -1.448  -8.835   3.340  1.00  0.00     0.018 A 
ATOM     21  CA  LYS B   1      -1.058  -8.267   4.732  1.00  0.00     0.351 C 
ATOM     22  C   LYS B   1       0.092  -7.294   4.615  1.00  0.00     0.254 C 
ATOM     23  O   LYS B   1       1.152  -7.467   5.226  1.00  0.00    -0.271 OA
ATOM     24  N   CYS B   2      -0.088  -6.264   3.783  1.00  0.00    -0.345 N 
ATOM     25  H   CYS B   2      -0.933  -6.191   3.286  1.00  0.00     0.163 HD
ATOM     26  CA  CYS B   2       0.941  -5.245   3.595  1.00  0.00     0.185 C 
ATOM     27  C   CYS B   2       2.016  -5.730   2.650  1.00  0.00     0.241 C 
ATOM     28  O   CYS B   2       2.568  -6.816   2.803  1.00  0.00    -0.271 OA
ATOM     29  N   ARG B   3       2.352  -4.895   1.647  1.00  0.00    -0.346 N 
ATOM     30  H   ARG B   3       1.869  -4.039   1.561  1.00  0.00     0.163 HD
BRANCH  20  31
ATOM     31  CG  LYS B   1      -2.450 -10.014   3.415  1.00  0.00     0.006 C 
BRANCH  31  32
ATOM     32  CD  LYS B   1      -2.847 -10.609   2.061  1.00  0.00     0.027 C 
BRANCH  32  33
ATOM     33  CE  LYS B   1      -3.849 -11.750   2.284  1.00  0.00     0.229 C 
BRANCH  33  34
ATOM     34  NZ  LYS B   1      -4.242 -12.318   0.983  1.00  0.00    -0.079 N 
ATOM     35  HZ1 LYS B   1      -3.443 -12.334   0.338  1.00  0.00     0.274 HD
ATOM     36  HZ2 LYS B   1      -4.551 -13.291   1.078  1.00  0.00     0.274 HD
ATOM     37  HZ3 LYS B   1      -4.990 -11.736   0.633  1.00  0.00     0.274 HD
ENDBRANCH  33  34
ENDBRANCH  32  33
ENDBRANCH  31  32
ENDBRANCH  20  31
BRANCH  21  38
ATOM     38  N   LYS B   1      -2.222  -7.630   5.341  1.00  0.00     0.312 N 
ATOM     39  H   LYS B   1      -1.997  -6.610   5.561  1.00  0.00     0.359 HD
ENDBRANCH  21  38
BRANCH  26  40
ATOM     40  CB  CYS B   2       1.503  -4.856   4.976  1.00  0.00     0.105 C 
BRANCH  40  41
ATOM     41  SG  CYS B   2       2.757  -3.564   4.816  1.00  0.00    -0.180 SA
ATOM     42  HG  CYS B   2       3.815  -4.342   5.031  1.00  0.00     0.101 HD
ENDBRANCH  40  41
ENDBRANCH  26  40
ENDBRANCH   3   6
ENDBRANCH   1   2
BRANCH   1  43
ATOM     43  CB  GLU B   4       1.619  -1.618  -2.053  1.00  0.00     0.045 C 
BRANCH  43  44
ATOM     44  CG  GLU B   4       0.498  -1.442  -1.042  1.00  0.00     0.116 C 
BRANCH  44  45
ATOM     45  CD  GLU B   4      -0.456  -2.621  -1.013  1.00  0.00     0.172 C 
ATOM     46  OE2 GLU B   4      -0.521  -3.306   0.029  1.00  0.00    -0.648 OA
ATOM     47  OE1 GLU B   4      -1.137  -2.858  -2.032  1.00  0.00    -0.648 OA
ENDBRANCH  44  45
ENDBRANCH  43  44
ENDBRANCH   1  43
BRANCH   1  48
ATOM     48  C   GLU B   4       3.543  -0.948  -0.607  1.00  0.00     0.241 C 
ATOM     49  O   GLU B   4       3.056  -0.622   0.476  1.00  0.00    -0.271 OA
ATOM     50  N   THR B   5       4.607  -0.349  -1.134  1.00  7.70    -0.344 N 
ATOM     51  H   THR B   5       4.944  -0.656  -2.002  1.00  0.23     0.163 HD
BRANCH  50  52
ATOM     52  CA  THR B   5       5.286   0.753  -0.459  1.00  7.88     0.205 C 
BRANCH  52  53
ATOM     53  CB  THR B   5       6.709   0.344  -0.075  1.00  4.05     0.146 C 
ATOM     54  CG2 THR B   5       7.356   1.289   0.914  1.00  3.72     0.042 C 
BRANCH  53  55
ATOM     55  OG1 THR B   5       6.720  -0.951   0.499  1.00  7.31    -0.393 OA
ATOM     56  HG1 THR B   5       6.777  -1.609  -0.197  1.00  0.23     0.210 HD
ENDBRANCH  53  55
ENDBRANCH  52  53
BRANCH  52  57
ATOM     57  C   THR B   5       5.323   1.989  -1.352  1.00  7.05     0.243 C 
ATOM     58  O   THR B   5       5.874   1.955  -2.452  1.00  6.06    -0.271 OA
ATOM     59  N   TRP B   6       4.731   3.078  -0.874  1.00  0.00    -0.346 N 
ATOM     60  H   TRP B   6       4.307   3.044   0.009  1.00  0.23     0.163 HD
BRANCH  59  61
ATOM     61  CA  TRP B   6       4.694   4.322  -1.632  1.00  0.00     0.181 C 
BRANCH  61  62
ATOM     62  CB  TRP B   6       3.466   5.144  -1.238  1.00  0.00     0.075 C 
BRANCH  62  63
ATOM     63  CG  TRP B   6       2.176   4.494  -1.635  1.00  0.00    -0.028 A 
ATOM     64  CD2 TRP B   6       1.490   4.644  -2.884  1.00  0.00    -0.002 A 
ATOM     65  CE2 TRP B   6       0.330   3.849  -2.820  1.00  0.00     0.042 A 
ATOM     66  CE3 TRP B   6       1.744   5.374  -4.048  1.00  0.00     0.014 A 
ATOM     67  CZ2 TRP B   6      -0.572   3.764  -3.877  1.00  0.00     0.030 A 
ATOM     68  NE1 TRP B   6       0.312   3.244  -1.590  1.00  0.00    -0.365 N 
ATOM     69  CH2 TRP B   6      -0.300   4.489  -5.005  1.00  0.00     0.002 A 
ATOM     70  CZ3 TRP B   6       0.846   5.288  -5.097  1.00  0.00     0.001 A 
ATOM     71  HE1 TRP B   6      -0.381   2.631  -1.266  1.00  0.23     0.165 HD
ATOM     72  CD1 TRP B   6       1.424   3.637  -0.885  1.00  0.00     0.096 A 
ENDBRANCH  62  63
ENDBRANCH  61  62
BRANCH  61  73
ATOM     73  C   TRP B   6       5.965   5.135  -1.408  1.00  0.00     0.241 C 
ATOM     74  N   VAL B   7       6.752   5.293  -2.468  1.00  6.11    -0.344 N 
ATOM     75  H   VAL B   7       6.488   4.893  -3.322  1.00  0.23     0.163 HD
ATOM     76  O   TRP B   6       6.227   5.604  -0.300  1.00  0.00    -0.271 OA
BRANCH  74  77
ATOM     77  CA  VAL B   7       7.998   6.045  -2.391  1.00  5.65     0.189 C 
BRANCH  77  78
ATOM     78  CB  VAL B   7       9.053   5.476  -3.360  1.00  1.15     0.010 C 
ATOM     79  CG1 VAL B   7       9.474   4.078  -2.930  1.00  4.96     0.012 C 
ATOM     80  CG2 VAL B   7       8.523   5.465  -4.786  1.00  9.83     0.012 C 
ENDBRANCH  77  78
BRANCH  77  81
ATOM     81  C   VAL B   7       7.772   7.520  -2.710  1.00  4.44     0.197 C 
ATOM     82  O   VAL B   7       8.412   8.369  -2.055  1.00  0.00    -0.646 OA
ATOM     83  OXT VAL B   7       6.958   7.813  -3.609  1.00  0.00    -0.646 OA
ENDBRANCH  77  81
ENDBRANCH  74  77
ENDBRANCH  61  73
ENDBRANCH  59  61
ENDBRANCH  52  57
ENDBRANCH  50  52
ENDBRANCH   1  48
TORSDOF 24
