MODEL 1
REMARK VINA RESULT:      -7.7      0.000      0.000
REMARK  32 active torsions:
REMARK  status: ('A' for Active; 'I' for Inactive)
REMARK    1  A    between atoms: N_1  and  CA_2 
REMARK    2  A    between atoms: CA_2  and  CB_5 
REMARK    3  A    between atoms: CA_2  and  C_3 
REMARK       I    between atoms: C_3  and  N_14 
REMARK    4  A    between atoms: CB_5  and  CG_6 
REMARK    5  A    between atoms: CG_6  and  CD_7 
REMARK    6  A    between atoms: CD_7  and  CE_8 
REMARK    7  A    between atoms: CE_8  and  NZ_9 
REMARK    8  A    between atoms: N_14  and  CA_15 
REMARK    9  A    between atoms: CA_15  and  C_16 
REMARK   10  A    between atoms: CA_15  and  CB_18 
REMARK       I    between atoms: C_16  and  N_22 
REMARK   11  A    between atoms: CB_18  and  SG_19 
REMARK   12  A    between atoms: N_22  and  CA_23 
REMARK   13  A    between atoms: CA_23  and  CB_26 
REMARK   14  A    between atoms: CA_23  and  C_24 
REMARK       I    between atoms: C_24  and  N_37 
REMARK   15  A    between atoms: CB_26  and  CG_27 
REMARK   16  A    between atoms: CG_27  and  SD_28 
REMARK   17  A    between atoms: CA_31  and  N_37 
REMARK   18  A    between atoms: CA_31  and  CB_33 
REMARK   19  A    between atoms: CA_31  and  C_32 
REMARK       I    between atoms: C_32  and  N_47 
REMARK   20  A    between atoms: CB_33  and  CG_34 
REMARK   21  A    between atoms: CG_34  and  CD_35 
REMARK   22  A    between atoms: CA_41  and  N_47 
REMARK   23  A    between atoms: CA_41  and  CB_43 
REMARK   24  A    between atoms: CA_41  and  C_42 
REMARK       I    between atoms: C_42  and  N_63 
REMARK   25  A    between atoms: CB_43  and  OG1_49 
REMARK   26  A    between atoms: CA_50  and  CB_52 
REMARK   27  A    between atoms: CA_50  and  N_63 
REMARK   28  A    between atoms: CA_50  and  C_51 
REMARK       I    between atoms: C_51  and  N_72 
REMARK   29  A    between atoms: CB_52  and  CG_53 
REMARK   30  A    between atoms: CA_66  and  N_72 
REMARK   31  A    between atoms: CA_66  and  CB_68 
REMARK   32  A    between atoms: CA_66  and  C_67 
ROOT
ATOM      1  CA  GLU B   4      10.937  91.160  65.538  1.00  0.00     0.177 C 
ENDROOT
BRANCH   1   2
ATOM      2  N   GLU B   4      10.348  92.298  64.834  1.00  0.00    -0.346 N 
ATOM      3  H   GLU B   4      10.538  93.206  65.149  1.00  0.23     0.163 HD
ATOM      4  C   MET B   3       9.549  92.127  63.784  1.00  0.00     0.241 C 
ATOM      5  O   MET B   3       9.278  91.012  63.333  1.00  0.00    -0.271 OA
BRANCH   4   6
ATOM      6  CA  MET B   3       8.999  93.373  63.132  1.00  0.00     0.177 C 
BRANCH   6   7
ATOM      7  N   MET B   3      10.019  94.038  62.327  1.00  0.00    -0.346 N 
ATOM      8  C   CYS B   2      10.917  94.887  62.862  1.00  0.00     0.241 C 
ATOM      9  O   CYS B   2      10.931  95.151  64.061  1.00  0.00    -0.271 OA
ATOM     10  H   MET B   3      10.052  93.860  61.361  1.00  0.00     0.163 HD
BRANCH   8  11
ATOM     11  CA  CYS B   2      11.933  95.470  61.908  1.00  0.00     0.185 C 
BRANCH  11  12
ATOM     12  N   CYS B   2      11.324  96.487  61.054  1.00  0.00    -0.345 N 
ATOM     13  H   CYS B   2      10.422  96.814  61.266  1.00  0.00     0.163 HD
ATOM     14  C   LYS B   1      11.965  96.983  59.992  1.00  0.00     0.254 C 
ATOM     15  O   LYS B   1      13.120  96.648  59.707  1.00  0.00    -0.271 OA
BRANCH  14  16
ATOM     16  CA  LYS B   1      11.216  98.015  59.181  1.00  0.00     0.350 C 
BRANCH  16  17
ATOM     17  N   LYS B   1       9.919  97.501  58.750  1.00  0.00     0.312 N 
ATOM     18  H   LYS B   1       9.344  98.293  58.324  1.00  0.00     0.359 HD
ENDBRANCH  16  17
BRANCH  16  19
ATOM     19  CB  LYS B   1      11.010  99.319  59.999  1.00  0.00     0.048 C 
BRANCH  19  20
ATOM     20  CG  LYS B   1      10.745 100.564  59.116  1.00  0.00     0.004 C 
BRANCH  20  21
ATOM     21  CD  LYS B   1      11.677 100.707  57.909  1.00  0.00     0.027 C 
BRANCH  21  22
ATOM     22  CE  LYS B   1      10.891 100.408  56.625  1.00  0.00     0.229 C 
BRANCH  22  23
ATOM     23  NZ  LYS B   1      11.816  99.927  55.585  1.00  0.00    -0.079 N 
ATOM     24  HZ3 LYS B   1      11.309  99.235  55.051  1.00  0.00     0.274 HD
ATOM     25  HZ2 LYS B   1      12.663  99.522  55.997  1.00  0.00     0.274 HD
ATOM     26  HZ1 LYS B   1      12.131 100.705  54.992  1.00  0.00     0.274 HD
ENDBRANCH  22  23
ENDBRANCH  21  22
ENDBRANCH  20  21
ENDBRANCH  19  20
ENDBRANCH  16  19
ENDBRANCH  14  16
ENDBRANCH  11  12
BRANCH  11  27
ATOM     27  CB  CYS B   2      13.134  96.100  62.639  1.00  0.00     0.105 C 
BRANCH  27  28
ATOM     28  SG  CYS B   2      14.501  94.924  62.755  1.00  0.00    -0.180 SA
ATOM     29  HG  CYS B   2      15.131  95.511  63.770  1.00  0.00     0.101 HD
ENDBRANCH  27  28
ENDBRANCH  11  27
ENDBRANCH   8  11
ENDBRANCH   6   7
BRANCH   6  30
ATOM     30  CB  MET B   3       7.766  93.037  62.247  1.00  0.00     0.045 C 
BRANCH  30  31
ATOM     31  CG  MET B   3       6.385  93.272  62.897  1.00  0.00     0.076 C 
BRANCH  31  32
ATOM     32  SD  MET B   3       5.149  93.550  61.619  1.00  0.00    -0.173 SA
ATOM     33  CE  MET B   3       6.257  93.915  60.251  1.00  0.00     0.089 C 
ENDBRANCH  31  32
ENDBRANCH  30  31
ENDBRANCH   6  30
ENDBRANCH   4   6
ENDBRANCH   1   2
BRANCH   1  34
ATOM     34  CB  GLU B   4      12.130  91.611  66.382  1.00  0.00     0.045 C 
BRANCH  34  35
ATOM     35  CG  GLU B   4      13.398  90.819  66.107  1.00  0.00     0.116 C 
BRANCH  35  36
ATOM     36  CD  GLU B   4      14.076  91.227  64.813  1.00  0.00     0.172 C 
ATOM     37  OE2 GLU B   4      15.008  92.056  64.867  1.00  0.00    -0.648 OA
ATOM     38  OE1 GLU B   4      13.674  90.718  63.747  1.00  0.00    -0.648 OA
ENDBRANCH  35  36
ENDBRANCH  34  35
ENDBRANCH   1  34
BRANCH   1  39
ATOM     39  C   GLU B   4       9.904  90.479  66.430  1.00  0.00     0.241 C 
ATOM     40  O   GLU B   4      10.253  89.833  67.419  1.00  0.00    -0.271 OA
ATOM     41  N   THR B   5       8.632  90.624  66.071  1.00  7.70    -0.344 N 
ATOM     42  H   THR B   5       8.421  91.150  65.270  1.00  0.23     0.163 HD
BRANCH  41  43
ATOM     43  CA  THR B   5       7.541  90.023  66.831  1.00  7.88     0.205 C 
BRANCH  43  44
ATOM     44  CB  THR B   5       6.814  91.090  67.651  1.00  4.05     0.146 C 
ATOM     45  CG2 THR B   5       6.488  92.335  66.856  1.00  3.72     0.042 C 
BRANCH  44  46
ATOM     46  OG1 THR B   5       5.598  90.581  68.169  1.00  7.31    -0.393 OA
ATOM     47  HG1 THR B   5       5.717  90.342  69.091  1.00  0.23     0.210 HD
ENDBRANCH  44  46
ENDBRANCH  43  44
BRANCH  43  48
ATOM     48  C   THR B   5       6.557  89.324  65.898  1.00  7.05     0.243 C 
ATOM     49  N   TRP B   6       6.732  89.529  64.598  1.00  0.00    -0.346 N 
ATOM     50  H   TRP B   6       7.467  90.105  64.299  1.00  0.23     0.163 HD
ATOM     51  O   THR B   5       5.656  88.616  66.349  1.00  6.06    -0.271 OA
BRANCH  49  52
ATOM     52  CA  TRP B   6       5.857  88.921  63.604  1.00  0.00     0.181 C 
BRANCH  52  53
ATOM     53  CB  TRP B   6       4.878  89.961  63.057  1.00  0.00     0.075 C 
BRANCH  53  54
ATOM     54  CG  TRP B   6       3.467  89.726  63.502  1.00  0.00    -0.028 A 
ATOM     55  CD2 TRP B   6       2.808  90.334  64.619  1.00  0.00    -0.002 A 
ATOM     56  CE2 TRP B   6       1.495  89.827  64.656  1.00  0.00     0.042 A 
ATOM     57  CE3 TRP B   6       3.202  91.257  65.592  1.00  0.00     0.014 A 
ATOM     58  CZ2 TRP B   6       0.576  90.214  65.627  1.00  0.00     0.030 A 
ATOM     59  NE1 TRP B   6       1.362  88.951  63.610  1.00  0.00    -0.365 N 
ATOM     60  CH2 TRP B   6       0.987  91.119  66.568  1.00  0.00     0.002 A 
ATOM     61  CZ3 TRP B   6       2.286  91.640  66.556  1.00  0.00     0.001 A 
ATOM     62  HE1 TRP B   6       0.552  88.447  63.388  1.00  0.23     0.165 HD
ATOM     63  CD1 TRP B   6       2.551  88.897  62.922  1.00  0.00     0.096 A 
ENDBRANCH  53  54
ENDBRANCH  52  53
BRANCH  52  64
ATOM     64  C   TRP B   6       6.666  88.311  62.465  1.00  0.00     0.241 C 
ATOM     65  N   VAL B   7       6.014  88.117  61.322  1.00  6.11    -0.344 N 
ATOM     66  H   VAL B   7       5.070  88.370  61.264  1.00  0.23     0.163 HD
ATOM     67  O   TRP B   6       7.853  88.018  62.619  1.00  0.00    -0.271 OA
BRANCH  65  68
ATOM     68  CA  VAL B   7       6.668  87.539  60.156  1.00  5.65     0.189 C 
BRANCH  68  69
ATOM     69  CB  VAL B   7       5.910  86.295  59.652  1.00  1.15     0.010 C 
ATOM     70  CG1 VAL B   7       6.690  85.028  59.972  1.00  4.96     0.012 C 
ATOM     71  CG2 VAL B   7       4.514  86.235  60.253  1.00  9.83     0.012 C 
ENDBRANCH  68  69
BRANCH  68  72
ATOM     72  C   VAL B   7       6.771  88.554  59.021  1.00  4.44     0.197 C 
ATOM     73  OXT VAL B   7       5.736  89.158  58.672  1.00  0.00    -0.646 OA
ATOM     74  O   VAL B   7       7.887  88.735  58.492  1.00  0.00    -0.646 OA
ENDBRANCH  68  72
ENDBRANCH  65  68
ENDBRANCH  52  64
ENDBRANCH  49  52
ENDBRANCH  43  48
ENDBRANCH  41  43
ENDBRANCH   1  39
TORSDOF 32
ENDMDL
MODEL 2
REMARK VINA RESULT:      -7.1      3.111      5.864
REMARK  32 active torsions:
REMARK  status: ('A' for Active; 'I' for Inactive)
REMARK    1  A    between atoms: N_1  and  CA_2 
REMARK    2  A    between atoms: CA_2  and  CB_5 
REMARK    3  A    between atoms: CA_2  and  C_3 
REMARK       I    between atoms: C_3  and  N_14 
REMARK    4  A    between atoms: CB_5  and  CG_6 
REMARK    5  A    between atoms: CG_6  and  CD_7 
REMARK    6  A    between atoms: CD_7  and  CE_8 
REMARK    7  A    between atoms: CE_8  and  NZ_9 
REMARK    8  A    between atoms: N_14  and  CA_15 
REMARK    9  A    between atoms: CA_15  and  C_16 
REMARK   10  A    between atoms: CA_15  and  CB_18 
REMARK       I    between atoms: C_16  and  N_22 
REMARK   11  A    between atoms: CB_18  and  SG_19 
REMARK   12  A    between atoms: N_22  and  CA_23 
REMARK   13  A    between atoms: CA_23  and  CB_26 
REMARK   14  A    between atoms: CA_23  and  C_24 
REMARK       I    between atoms: C_24  and  N_37 
REMARK   15  A    between atoms: CB_26  and  CG_27 
REMARK   16  A    between atoms: CG_27  and  SD_28 
REMARK   17  A    between atoms: CA_31  and  N_37 
REMARK   18  A    between atoms: CA_31  and  CB_33 
REMARK   19  A    between atoms: CA_31  and  C_32 
REMARK       I    between atoms: C_32  and  N_47 
REMARK   20  A    between atoms: CB_33  and  CG_34 
REMARK   21  A    between atoms: CG_34  and  CD_35 
REMARK   22  A    between atoms: CA_41  and  N_47 
REMARK   23  A    between atoms: CA_41  and  CB_43 
REMARK   24  A    between atoms: CA_41  and  C_42 
REMARK       I    between atoms: C_42  and  N_63 
REMARK   25  A    between atoms: CB_43  and  OG1_49 
REMARK   26  A    between atoms: CA_50  and  CB_52 
REMARK   27  A    between atoms: CA_50  and  N_63 
REMARK   28  A    between atoms: CA_50  and  C_51 
REMARK       I    between atoms: C_51  and  N_72 
REMARK   29  A    between atoms: CB_52  and  CG_53 
REMARK   30  A    between atoms: CA_66  and  N_72 
REMARK   31  A    between atoms: CA_66  and  CB_68 
REMARK   32  A    between atoms: CA_66  and  C_67 
ROOT
ATOM      1  CA  GLU B   4       8.975  89.490  66.180  1.00  0.00     0.177 C 
ENDROOT
BRANCH   1   2
ATOM      2  N   GLU B   4       8.725  90.882  65.809  1.00  0.00    -0.346 N 
ATOM      3  H   GLU B   4       8.223  91.458  66.422  1.00  0.23     0.163 HD
ATOM      4  C   MET B   3       9.154  91.381  64.653  1.00  0.00     0.241 C 
ATOM      5  O   MET B   3       9.799  90.712  63.842  1.00  0.00    -0.271 OA
BRANCH   4   6
ATOM      6  CA  MET B   3       8.843  92.832  64.375  1.00  0.00     0.177 C 
BRANCH   6   7
ATOM      7  N   MET B   3       9.930  93.470  63.637  1.00  0.00    -0.346 N 
ATOM      8  C   CYS B   2      10.653  94.481  64.154  1.00  0.00     0.241 C 
ATOM      9  O   CYS B   2      10.442  94.927  65.278  1.00  0.00    -0.271 OA
ATOM     10  H   MET B   3      10.141  93.149  62.732  1.00  0.00     0.163 HD
BRANCH   8  11
ATOM     11  CA  CYS B   2      11.768  95.014  63.284  1.00  0.00     0.185 C 
BRANCH  11  12
ATOM     12  N   CYS B   2      12.750  93.973  62.996  1.00  0.00    -0.345 N 
ATOM     13  H   CYS B   2      12.449  93.124  62.602  1.00  0.00     0.163 HD
ATOM     14  C   LYS B   1      14.049  94.146  63.257  1.00  0.00     0.254 C 
ATOM     15  O   LYS B   1      14.493  95.210  63.703  1.00  0.00    -0.271 OA
BRANCH  14  16
ATOM     16  CA  LYS B   1      14.957  92.984  62.930  1.00  0.00     0.350 C 
BRANCH  16  17
ATOM     17  N   LYS B   1      16.121  93.427  62.167  1.00  0.00     0.312 N 
ATOM     18  H   LYS B   1      16.520  92.606  61.614  1.00  0.00     0.359 HD
ENDBRANCH  16  17
BRANCH  16  19
ATOM     19  CB  LYS B   1      15.430  92.267  64.224  1.00  0.00     0.048 C 
BRANCH  19  20
ATOM     20  CG  LYS B   1      14.393  91.261  64.784  1.00  0.00     0.004 C 
BRANCH  20  21
ATOM     21  CD  LYS B   1      13.796  91.640  66.142  1.00  0.00     0.027 C 
BRANCH  21  22
ATOM     22  CE  LYS B   1      12.593  90.733  66.437  1.00  0.00     0.229 C 
BRANCH  22  23
ATOM     23  NZ  LYS B   1      12.307  89.900  65.257  1.00  0.00    -0.079 N 
ATOM     24  HZ3 LYS B   1      13.165  89.413  65.038  1.00  0.00     0.274 HD
ATOM     25  HZ2 LYS B   1      11.999  90.470  64.462  1.00  0.00     0.274 HD
ATOM     26  HZ1 LYS B   1      11.541  89.245  65.452  1.00  0.00     0.274 HD
ENDBRANCH  22  23
ENDBRANCH  21  22
ENDBRANCH  20  21
ENDBRANCH  19  20
ENDBRANCH  16  19
ENDBRANCH  14  16
ENDBRANCH  11  12
BRANCH  11  27
ATOM     27  CB  CYS B   2      11.251  95.582  61.948  1.00  0.00     0.105 C 
BRANCH  27  28
ATOM     28  SG  CYS B   2      12.547  96.518  61.106  1.00  0.00    -0.180 SA
ATOM     29  HG  CYS B   2      11.760  97.112  60.212  1.00  0.00     0.101 HD
ENDBRANCH  27  28
ENDBRANCH  11  27
ENDBRANCH   8  11
ENDBRANCH   6   7
BRANCH   6  30
ATOM     30  CB  MET B   3       7.514  92.972  63.581  1.00  0.00     0.045 C 
BRANCH  30  31
ATOM     31  CG  MET B   3       6.232  93.104  64.431  1.00  0.00     0.076 C 
BRANCH  31  32
ATOM     32  SD  MET B   3       4.873  93.679  63.399  1.00  0.00    -0.173 SA
ATOM     33  CE  MET B   3       5.732  93.713  61.821  1.00  0.00     0.089 C 
ENDBRANCH  31  32
ENDBRANCH  30  31
ENDBRANCH   6  30
ENDBRANCH   4   6
ENDBRANCH   1   2
BRANCH   1  34
ATOM     34  CB  GLU B   4       9.529  89.405  67.602  1.00  0.00     0.045 C 
BRANCH  34  35
ATOM     35  CG  GLU B   4       9.341  90.683  68.402  1.00  0.00     0.116 C 
BRANCH  35  36
ATOM     36  CD  GLU B   4       8.072  90.674  69.233  1.00  0.00     0.172 C 
ATOM     37  OE2 GLU B   4       7.001  91.009  68.684  1.00  0.00    -0.648 OA
ATOM     38  OE1 GLU B   4       8.149  90.332  70.431  1.00  0.00    -0.648 OA
ENDBRANCH  35  36
ENDBRANCH  34  35
ENDBRANCH   1  34
BRANCH   1  39
ATOM     39  C   GLU B   4       7.698  88.662  66.074  1.00  0.00     0.241 C 
ATOM     40  O   GLU B   4       7.740  87.478  65.739  1.00  0.00    -0.271 OA
ATOM     41  N   THR B   5       6.563  89.296  66.358  1.00  7.70    -0.344 N 
ATOM     42  H   THR B   5       6.599  90.241  66.617  1.00  0.23     0.163 HD
BRANCH  41  43
ATOM     43  CA  THR B   5       5.268  88.626  66.294  1.00  7.88     0.205 C 
BRANCH  43  44
ATOM     44  CB  THR B   5       4.623  88.584  67.681  1.00  4.05     0.146 C 
ATOM     45  CG2 THR B   5       5.365  87.697  68.657  1.00  3.72     0.042 C 
BRANCH  44  46
ATOM     46  OG1 THR B   5       4.560  89.882  68.243  1.00  7.31    -0.393 OA
ATOM     47  HG1 THR B   5       5.449  90.216  68.378  1.00  0.23     0.210 HD
ENDBRANCH  44  46
ENDBRANCH  43  44
BRANCH  43  48
ATOM     48  C   THR B   5       4.343  89.339  65.312  1.00  7.05     0.243 C 
ATOM     49  N   TRP B   6       4.316  88.857  64.074  1.00  0.00    -0.346 N 
ATOM     50  H   TRP B   6       4.875  88.084  63.849  1.00  0.23     0.163 HD
ATOM     51  O   THR B   5       3.671  90.306  65.669  1.00  6.06    -0.271 OA
BRANCH  49  52
ATOM     52  CA  TRP B   6       3.476  89.451  63.042  1.00  0.00     0.181 C 
BRANCH  52  53
ATOM     53  CB  TRP B   6       4.287  90.446  62.210  1.00  0.00     0.075 C 
BRANCH  53  54
ATOM     54  CG  TRP B   6       5.610  89.897  61.770  1.00  0.00    -0.028 A 
ATOM     55  CD2 TRP B   6       5.963  89.470  60.448  1.00  0.00    -0.002 A 
ATOM     56  CE2 TRP B   6       7.302  89.038  60.495  1.00  0.00     0.042 A 
ATOM     57  CE3 TRP B   6       5.276  89.411  59.233  1.00  0.00     0.014 A 
ATOM     58  CZ2 TRP B   6       7.966  88.554  59.371  1.00  0.00     0.030 A 
ATOM     59  NE1 TRP B   6       7.742  89.195  61.783  1.00  0.00    -0.365 N 
ATOM     60  CH2 TRP B   6       7.271  88.506  58.193  1.00  0.00     0.002 A 
ATOM     61  CZ3 TRP B   6       5.938  88.930  58.117  1.00  0.00     0.001 A 
ATOM     62  HE1 TRP B   6       8.639  88.975  62.111  1.00  0.23     0.165 HD
ATOM     63  CD1 TRP B   6       6.719  89.711  62.542  1.00  0.00     0.096 A 
ENDBRANCH  53  54
ENDBRANCH  52  53
BRANCH  52  64
ATOM     64  C   TRP B   6       2.877  88.376  62.141  1.00  0.00     0.241 C 
ATOM     65  N   VAL B   7       3.325  87.138  62.331  1.00  6.11    -0.344 N 
ATOM     66  H   VAL B   7       3.999  86.976  63.022  1.00  0.23     0.163 HD
ATOM     67  O   TRP B   6       2.034  88.663  61.291  1.00  0.00    -0.271 OA
BRANCH  65  68
ATOM     68  CA  VAL B   7       2.838  86.018  61.535  1.00  5.65     0.189 C 
BRANCH  68  69
ATOM     69  CB  VAL B   7       3.902  85.552  60.522  1.00  1.15     0.010 C 
ATOM     70  CG1 VAL B   7       3.619  86.134  59.144  1.00  4.96     0.012 C 
ATOM     71  CG2 VAL B   7       5.297  85.934  60.992  1.00  9.83     0.012 C 
ENDBRANCH  68  69
BRANCH  68  72
ATOM     72  C   VAL B   7       2.445  84.841  62.423  1.00  4.44     0.197 C 
ATOM     73  OXT VAL B   7       2.115  83.770  61.875  1.00  0.00    -0.646 OA
ATOM     74  O   VAL B   7       2.473  85.003  63.661  1.00  0.00    -0.646 OA
ENDBRANCH  68  72
ENDBRANCH  65  68
ENDBRANCH  52  64
ENDBRANCH  49  52
ENDBRANCH  43  48
ENDBRANCH  41  43
ENDBRANCH   1  39
TORSDOF 32
ENDMDL
MODEL 3
REMARK VINA RESULT:      -7.0      3.317      5.717
REMARK  32 active torsions:
REMARK  status: ('A' for Active; 'I' for Inactive)
REMARK    1  A    between atoms: N_1  and  CA_2 
REMARK    2  A    between atoms: CA_2  and  CB_5 
REMARK    3  A    between atoms: CA_2  and  C_3 
REMARK       I    between atoms: C_3  and  N_14 
REMARK    4  A    between atoms: CB_5  and  CG_6 
REMARK    5  A    between atoms: CG_6  and  CD_7 
REMARK    6  A    between atoms: CD_7  and  CE_8 
REMARK    7  A    between atoms: CE_8  and  NZ_9 
REMARK    8  A    between atoms: N_14  and  CA_15 
REMARK    9  A    between atoms: CA_15  and  C_16 
REMARK   10  A    between atoms: CA_15  and  CB_18 
REMARK       I    between atoms: C_16  and  N_22 
REMARK   11  A    between atoms: CB_18  and  SG_19 
REMARK   12  A    between atoms: N_22  and  CA_23 
REMARK   13  A    between atoms: CA_23  and  CB_26 
REMARK   14  A    between atoms: CA_23  and  C_24 
REMARK       I    between atoms: C_24  and  N_37 
REMARK   15  A    between atoms: CB_26  and  CG_27 
REMARK   16  A    between atoms: CG_27  and  SD_28 
REMARK   17  A    between atoms: CA_31  and  N_37 
REMARK   18  A    between atoms: CA_31  and  CB_33 
REMARK   19  A    between atoms: CA_31  and  C_32 
REMARK       I    between atoms: C_32  and  N_47 
REMARK   20  A    between atoms: CB_33  and  CG_34 
REMARK   21  A    between atoms: CG_34  and  CD_35 
REMARK   22  A    between atoms: CA_41  and  N_47 
REMARK   23  A    between atoms: CA_41  and  CB_43 
REMARK   24  A    between atoms: CA_41  and  C_42 
REMARK       I    between atoms: C_42  and  N_63 
REMARK   25  A    between atoms: CB_43  and  OG1_49 
REMARK   26  A    between atoms: CA_50  and  CB_52 
REMARK   27  A    between atoms: CA_50  and  N_63 
REMARK   28  A    between atoms: CA_50  and  C_51 
REMARK       I    between atoms: C_51  and  N_72 
REMARK   29  A    between atoms: CB_52  and  CG_53 
REMARK   30  A    between atoms: CA_66  and  N_72 
REMARK   31  A    between atoms: CA_66  and  CB_68 
REMARK   32  A    between atoms: CA_66  and  C_67 
ROOT
ATOM      1  CA  GLU B   4       6.350  89.376  65.731  1.00  0.00     0.177 C 
ENDROOT
BRANCH   1   2
ATOM      2  N   GLU B   4       6.487  90.801  65.435  1.00  0.00    -0.346 N 
ATOM      3  H   GLU B   4       6.586  91.436  66.174  1.00  0.23     0.163 HD
ATOM      4  C   MET B   3       6.468  91.256  64.185  1.00  0.00     0.241 C 
ATOM      5  O   MET B   3       6.356  90.508  63.210  1.00  0.00    -0.271 OA
BRANCH   4   6
ATOM      6  CA  MET B   3       6.621  92.746  63.995  1.00  0.00     0.177 C 
BRANCH   6   7
ATOM      7  N   MET B   3       8.005  93.096  63.687  1.00  0.00    -0.346 N 
ATOM      8  C   CYS B   2       8.925  93.302  64.648  1.00  0.00     0.241 C 
ATOM      9  O   CYS B   2       8.656  93.207  65.842  1.00  0.00    -0.271 OA
ATOM     10  H   MET B   3       8.274  93.184  62.746  1.00  0.00     0.163 HD
BRANCH   8  11
ATOM     11  CA  CYS B   2      10.323  93.623  64.172  1.00  0.00     0.185 C 
BRANCH  11  12
ATOM     12  N   CYS B   2      11.091  92.402  63.946  1.00  0.00    -0.345 N 
ATOM     13  H   CYS B   2      10.828  91.797  63.217  1.00  0.00     0.163 HD
ATOM     14  C   LYS B   1      12.144  92.087  64.706  1.00  0.00     0.254 C 
ATOM     15  O   LYS B   1      12.553  92.833  65.603  1.00  0.00    -0.271 OA
BRANCH  14  16
ATOM     16  CA  LYS B   1      12.840  90.787  64.379  1.00  0.00     0.350 C 
BRANCH  16  17
ATOM     17  N   LYS B   1      12.085  90.025  63.388  1.00  0.00     0.312 N 
ATOM     18  H   LYS B   1      12.747  89.674  62.627  1.00  0.00     0.359 HD
ENDBRANCH  16  17
BRANCH  16  19
ATOM     19  CB  LYS B   1      14.277  91.044  63.850  1.00  0.00     0.048 C 
BRANCH  19  20
ATOM     20  CG  LYS B   1      14.361  92.219  62.843  1.00  0.00     0.004 C 
BRANCH  20  21
ATOM     21  CD  LYS B   1      15.742  92.871  62.727  1.00  0.00     0.027 C 
BRANCH  21  22
ATOM     22  CE  LYS B   1      15.667  94.311  63.252  1.00  0.00     0.229 C 
BRANCH  22  23
ATOM     23  NZ  LYS B   1      16.542  95.174  62.440  1.00  0.00    -0.079 N 
ATOM     24  HZ3 LYS B   1      17.116  95.691  63.092  1.00  0.00     0.274 HD
ATOM     25  HZ2 LYS B   1      15.996  95.811  61.851  1.00  0.00     0.274 HD
ATOM     26  HZ1 LYS B   1      17.113  94.611  61.799  1.00  0.00     0.274 HD
ENDBRANCH  22  23
ENDBRANCH  21  22
ENDBRANCH  20  21
ENDBRANCH  19  20
ENDBRANCH  16  19
ENDBRANCH  14  16
ENDBRANCH  11  12
BRANCH  11  27
ATOM     27  CB  CYS B   2      10.327  94.452  62.873  1.00  0.00     0.105 C 
BRANCH  27  28
ATOM     28  SG  CYS B   2      11.918  95.279  62.646  1.00  0.00    -0.180 SA
ATOM     29  HG  CYS B   2      12.103  95.619  63.919  1.00  0.00     0.101 HD
ENDBRANCH  27  28
ENDBRANCH  11  27
ENDBRANCH   8  11
ENDBRANCH   6   7
BRANCH   6  30
ATOM     30  CB  MET B   3       5.684  93.260  62.868  1.00  0.00     0.045 C 
BRANCH  30  31
ATOM     31  CG  MET B   3       6.346  93.486  61.491  1.00  0.00     0.076 C 
BRANCH  31  32
ATOM     32  SD  MET B   3       5.112  94.037  60.303  1.00  0.00    -0.173 SA
ATOM     33  CE  MET B   3       3.922  94.732  61.458  1.00  0.00     0.089 C 
ENDBRANCH  31  32
ENDBRANCH  30  31
ENDBRANCH   6  30
ENDBRANCH   4   6
ENDBRANCH   1   2
BRANCH   1  34
ATOM     34  CB  GLU B   4       7.176  89.002  66.963  1.00  0.00     0.045 C 
BRANCH  34  35
ATOM     35  CG  GLU B   4       8.578  88.519  66.627  1.00  0.00     0.116 C 
BRANCH  35  36
ATOM     36  CD  GLU B   4       9.473  89.630  66.112  1.00  0.00     0.172 C 
ATOM     37  OE2 GLU B   4       9.535  89.820  64.880  1.00  0.00    -0.648 OA
ATOM     38  OE1 GLU B   4      10.112  90.309  66.943  1.00  0.00    -0.648 OA
ENDBRANCH  35  36
ENDBRANCH  34  35
ENDBRANCH   1  34
BRANCH   1  39
ATOM     39  C   GLU B   4       4.888  89.007  65.961  1.00  0.00     0.241 C 
ATOM     40  O   GLU B   4       4.428  88.935  67.101  1.00  0.00    -0.271 OA
ATOM     41  N   THR B   5       4.165  88.770  64.870  1.00  7.70    -0.344 N 
ATOM     42  H   THR B   5       4.593  88.843  63.991  1.00  0.23     0.163 HD
BRANCH  41  43
ATOM     43  CA  THR B   5       2.754  88.404  64.944  1.00  7.88     0.205 C 
BRANCH  43  44
ATOM     44  CB  THR B   5       1.878  89.572  64.488  1.00  4.05     0.146 C 
ATOM     45  CG2 THR B   5       1.469  90.490  65.620  1.00  3.72     0.042 C 
BRANCH  44  46
ATOM     46  OG1 THR B   5       2.553  90.357  63.522  1.00  7.31    -0.393 OA
ATOM     47  HG1 THR B   5       2.764  89.815  62.759  1.00  0.23     0.210 HD
ENDBRANCH  44  46
ENDBRANCH  43  44
BRANCH  43  48
ATOM     48  C   THR B   5       2.472  87.176  64.084  1.00  7.05     0.243 C 
ATOM     49  N   TRP B   6       2.714  87.301  62.783  1.00  0.00    -0.346 N 
ATOM     50  H   TRP B   6       3.054  88.153  62.439  1.00  0.23     0.163 HD
ATOM     51  O   THR B   5       2.042  86.139  64.588  1.00  6.06    -0.271 OA
BRANCH  49  52
ATOM     52  CA  TRP B   6       2.482  86.202  61.855  1.00  0.00     0.181 C 
BRANCH  52  53
ATOM     53  CB  TRP B   6       1.073  86.296  61.266  1.00  0.00     0.075 C 
BRANCH  53  54
ATOM     54  CG  TRP B   6       0.822  87.591  60.556  1.00  0.00    -0.028 A 
ATOM     55  CD2 TRP B   6       0.829  87.807  59.139  1.00  0.00    -0.002 A 
ATOM     56  CE2 TRP B   6       0.538  89.167  58.924  1.00  0.00     0.042 A 
ATOM     57  CE3 TRP B   6       1.053  86.981  58.035  1.00  0.00     0.014 A 
ATOM     58  CZ2 TRP B   6       0.465  89.718  57.647  1.00  0.00     0.030 A 
ATOM     59  NE1 TRP B   6       0.363  89.751  60.151  1.00  0.00    -0.365 N 
ATOM     60  CH2 TRP B   6       0.689  88.888  56.583  1.00  0.00     0.002 A 
ATOM     61  CZ3 TRP B   6       0.980  87.531  56.767  1.00  0.00     0.001 A 
ATOM     62  HE1 TRP B   6       0.149  90.695  60.309  1.00  0.23     0.165 HD
ATOM     63  CD1 TRP B   6       0.535  88.798  61.126  1.00  0.00     0.096 A 
ENDBRANCH  53  54
ENDBRANCH  52  53
BRANCH  52  64
ATOM     64  C   TRP B   6       3.520  86.204  60.737  1.00  0.00     0.241 C 
ATOM     65  N   VAL B   7       4.431  87.171  60.788  1.00  6.11    -0.344 N 
ATOM     66  H   VAL B   7       4.397  87.820  61.520  1.00  0.23     0.163 HD
ATOM     67  O   TRP B   6       3.492  85.352  59.849  1.00  0.00    -0.271 OA
BRANCH  65  68
ATOM     68  CA  VAL B   7       5.477  87.290  59.780  1.00  5.65     0.189 C 
BRANCH  68  69
ATOM     69  CB  VAL B   7       5.606  88.743  59.280  1.00  1.15     0.010 C 
ATOM     70  CG1 VAL B   7       6.588  88.823  58.120  1.00  4.96     0.012 C 
ATOM     71  CG2 VAL B   7       4.247  89.295  58.875  1.00  9.83     0.012 C 
ENDBRANCH  68  69
BRANCH  68  72
ATOM     72  C   VAL B   7       6.825  86.830  60.328  1.00  4.44     0.197 C 
ATOM     73  OXT VAL B   7       7.343  87.489  61.253  1.00  0.00    -0.646 OA
ATOM     74  O   VAL B   7       7.348  85.813  59.827  1.00  0.00    -0.646 OA
ENDBRANCH  68  72
ENDBRANCH  65  68
ENDBRANCH  52  64
ENDBRANCH  49  52
ENDBRANCH  43  48
ENDBRANCH  41  43
ENDBRANCH   1  39
TORSDOF 32
ENDMDL
MODEL 4
REMARK VINA RESULT:      -6.9      2.327      5.019
REMARK  32 active torsions:
REMARK  status: ('A' for Active; 'I' for Inactive)
REMARK    1  A    between atoms: N_1  and  CA_2 
REMARK    2  A    between atoms: CA_2  and  CB_5 
REMARK    3  A    between atoms: CA_2  and  C_3 
REMARK       I    between atoms: C_3  and  N_14 
REMARK    4  A    between atoms: CB_5  and  CG_6 
REMARK    5  A    between atoms: CG_6  and  CD_7 
REMARK    6  A    between atoms: CD_7  and  CE_8 
REMARK    7  A    between atoms: CE_8  and  NZ_9 
REMARK    8  A    between atoms: N_14  and  CA_15 
REMARK    9  A    between atoms: CA_15  and  C_16 
REMARK   10  A    between atoms: CA_15  and  CB_18 
REMARK       I    between atoms: C_16  and  N_22 
REMARK   11  A    between atoms: CB_18  and  SG_19 
REMARK   12  A    between atoms: N_22  and  CA_23 
REMARK   13  A    between atoms: CA_23  and  CB_26 
REMARK   14  A    between atoms: CA_23  and  C_24 
REMARK       I    between atoms: C_24  and  N_37 
REMARK   15  A    between atoms: CB_26  and  CG_27 
REMARK   16  A    between atoms: CG_27  and  SD_28 
REMARK   17  A    between atoms: CA_31  and  N_37 
REMARK   18  A    between atoms: CA_31  and  CB_33 
REMARK   19  A    between atoms: CA_31  and  C_32 
REMARK       I    between atoms: C_32  and  N_47 
REMARK   20  A    between atoms: CB_33  and  CG_34 
REMARK   21  A    between atoms: CG_34  and  CD_35 
REMARK   22  A    between atoms: CA_41  and  N_47 
REMARK   23  A    between atoms: CA_41  and  CB_43 
REMARK   24  A    between atoms: CA_41  and  C_42 
REMARK       I    between atoms: C_42  and  N_63 
REMARK   25  A    between atoms: CB_43  and  OG1_49 
REMARK   26  A    between atoms: CA_50  and  CB_52 
REMARK   27  A    between atoms: CA_50  and  N_63 
REMARK   28  A    between atoms: CA_50  and  C_51 
REMARK       I    between atoms: C_51  and  N_72 
REMARK   29  A    between atoms: CB_52  and  CG_53 
REMARK   30  A    between atoms: CA_66  and  N_72 
REMARK   31  A    between atoms: CA_66  and  CB_68 
REMARK   32  A    between atoms: CA_66  and  C_67 
ROOT
ATOM      1  CA  GLU B   4       9.382  90.007  66.403  1.00  0.00     0.177 C 
ENDROOT
BRANCH   1   2
ATOM      2  N   GLU B   4       9.692  91.358  65.940  1.00  0.00    -0.346 N 
ATOM      3  H   GLU B   4       9.052  92.080  66.107  1.00  0.23     0.163 HD
ATOM      4  C   MET B   3      10.818  91.627  65.285  1.00  0.00     0.241 C 
ATOM      5  O   MET B   3      11.669  90.765  65.050  1.00  0.00    -0.271 OA
BRANCH   4   6
ATOM      6  CA  MET B   3      11.037  93.058  64.855  1.00  0.00     0.177 C 
BRANCH   6   7
ATOM      7  N   MET B   3      12.021  93.137  63.780  1.00  0.00    -0.346 N 
ATOM      8  C   CYS B   2      12.900  94.153  63.683  1.00  0.00     0.241 C 
ATOM      9  O   CYS B   2      12.927  95.073  64.496  1.00  0.00    -0.271 OA
ATOM     10  H   MET B   3      12.043  92.425  63.102  1.00  0.00     0.163 HD
BRANCH   8  11
ATOM     11  CA  CYS B   2      13.880  94.078  62.535  1.00  0.00     0.185 C 
BRANCH  11  12
ATOM     12  N   CYS B   2      13.841  95.300  61.735  1.00  0.00    -0.345 N 
ATOM     13  H   CYS B   2      14.685  95.741  61.491  1.00  0.00     0.163 HD
ATOM     14  C   LYS B   1      12.685  95.832  61.327  1.00  0.00     0.254 C 
ATOM     15  O   LYS B   1      11.597  95.295  61.559  1.00  0.00    -0.271 OA
BRANCH  14  16
ATOM     16  CA  LYS B   1      12.784  97.107  60.523  1.00  0.00     0.350 C 
BRANCH  16  17
ATOM     17  N   LYS B   1      13.349  96.849  59.201  1.00  0.00     0.312 N 
ATOM     18  H   LYS B   1      12.616  96.376  58.586  1.00  0.00     0.359 HD
ENDBRANCH  16  17
BRANCH  16  19
ATOM     19  CB  LYS B   1      11.391  97.776  60.369  1.00  0.00     0.048 C 
BRANCH  19  20
ATOM     20  CG  LYS B   1      10.878  97.801  58.907  1.00  0.00     0.004 C 
BRANCH  20  21
ATOM     21  CD  LYS B   1      10.564  99.195  58.358  1.00  0.00     0.027 C 
BRANCH  21  22
ATOM     22  CE  LYS B   1      11.877  99.910  58.012  1.00  0.00     0.229 C 
BRANCH  22  23
ATOM     23  NZ  LYS B   1      11.658 101.367  58.019  1.00  0.00    -0.079 N 
ATOM     24  HZ3 LYS B   1      11.207 101.591  57.143  1.00  0.00     0.274 HD
ATOM     25  HZ2 LYS B   1      12.542 101.877  58.115  1.00  0.00     0.274 HD
ATOM     26  HZ1 LYS B   1      11.080 101.643  58.822  1.00  0.00     0.274 HD
ENDBRANCH  22  23
ENDBRANCH  21  22
ENDBRANCH  20  21
ENDBRANCH  19  20
ENDBRANCH  16  19
ENDBRANCH  14  16
ENDBRANCH  11  12
BRANCH  11  27
ATOM     27  CB  CYS B   2      15.327  93.849  63.010  1.00  0.00     0.105 C 
BRANCH  27  28
ATOM     28  SG  CYS B   2      16.157  95.426  63.317  1.00  0.00    -0.180 SA
ATOM     29  HG  CYS B   2      15.553  96.114  62.352  1.00  0.00     0.101 HD
ENDBRANCH  27  28
ENDBRANCH  11  27
ENDBRANCH   8  11
ENDBRANCH   6   7
BRANCH   6  30
ATOM     30  CB  MET B   3       9.703  93.710  64.398  1.00  0.00     0.045 C 
BRANCH  30  31
ATOM     31  CG  MET B   3       9.344  93.536  62.906  1.00  0.00     0.076 C 
BRANCH  31  32
ATOM     32  SD  MET B   3       8.010  92.340  62.734  1.00  0.00    -0.173 SA
ATOM     33  CE  MET B   3       6.913  93.312  61.693  1.00  0.00     0.089 C 
ENDBRANCH  31  32
ENDBRANCH  30  31
ENDBRANCH   6  30
ENDBRANCH   4   6
ENDBRANCH   1   2
BRANCH   1  34
ATOM     34  CB  GLU B   4       9.773  89.841  67.872  1.00  0.00     0.045 C 
BRANCH  34  35
ATOM     35  CG  GLU B   4       8.946  90.695  68.819  1.00  0.00     0.116 C 
BRANCH  35  36
ATOM     36  CD  GLU B   4       8.378  89.902  69.980  1.00  0.00     0.172 C 
ATOM     37  OE2 GLU B   4       7.137  89.802  70.081  1.00  0.00    -0.648 OA
ATOM     38  OE1 GLU B   4       9.175  89.380  70.788  1.00  0.00    -0.648 OA
ENDBRANCH  35  36
ENDBRANCH  34  35
ENDBRANCH   1  34
BRANCH   1  39
ATOM     39  C   GLU B   4       7.898  89.700  66.228  1.00  0.00     0.241 C 
ATOM     40  O   GLU B   4       7.457  88.571  66.449  1.00  0.00    -0.271 OA
ATOM     41  N   THR B   5       7.133  90.711  65.825  1.00  7.70    -0.344 N 
ATOM     42  H   THR B   5       7.547  91.585  65.665  1.00  0.23     0.163 HD
BRANCH  41  43
ATOM     43  CA  THR B   5       5.697  90.556  65.614  1.00  7.88     0.205 C 
BRANCH  43  44
ATOM     44  CB  THR B   5       4.949  91.783  66.137  1.00  4.05     0.146 C 
ATOM     45  CG2 THR B   5       5.400  93.077  65.496  1.00  3.72     0.042 C 
BRANCH  44  46
ATOM     46  OG1 THR B   5       3.556  91.655  65.910  1.00  7.31    -0.393 OA
ATOM     47  HG1 THR B   5       3.363  91.849  64.991  1.00  0.23     0.210 HD
ENDBRANCH  44  46
ENDBRANCH  43  44
BRANCH  43  48
ATOM     48  C   THR B   5       5.391  90.353  64.133  1.00  7.05     0.243 C 
ATOM     49  N   TRP B   6       5.962  89.303  63.553  1.00  0.00    -0.346 N 
ATOM     50  H   TRP B   6       6.540  88.717  64.086  1.00  0.23     0.163 HD
ATOM     51  O   THR B   5       4.655  91.133  63.529  1.00  6.06    -0.271 OA
BRANCH  49  52
ATOM     52  CA  TRP B   6       5.752  89.001  62.143  1.00  0.00     0.181 C 
BRANCH  52  53
ATOM     53  CB  TRP B   6       6.815  88.019  61.650  1.00  0.00     0.075 C 
BRANCH  53  54
ATOM     54  CG  TRP B   6       6.782  87.819  60.165  1.00  0.00    -0.028 A 
ATOM     55  CD2 TRP B   6       6.940  86.579  59.464  1.00  0.00    -0.002 A 
ATOM     56  CE2 TRP B   6       6.830  86.862  58.089  1.00  0.00     0.042 A 
ATOM     57  CE3 TRP B   6       7.165  85.260  59.866  1.00  0.00     0.014 A 
ATOM     58  CZ2 TRP B   6       6.936  85.872  57.116  1.00  0.00     0.030 A 
ATOM     59  NE1 TRP B   6       6.615  88.210  57.961  1.00  0.00    -0.365 N 
ATOM     60  CH2 TRP B   6       7.157  84.589  57.536  1.00  0.00     0.002 A 
ATOM     61  CZ3 TRP B   6       7.270  84.278  58.897  1.00  0.00     0.001 A 
ATOM     62  HE1 TRP B   6       6.499  88.691  57.115  1.00  0.23     0.165 HD
ATOM     63  CD1 TRP B   6       6.587  88.776  59.212  1.00  0.00     0.096 A 
ENDBRANCH  53  54
ENDBRANCH  52  53
BRANCH  52  64
ATOM     64  C   TRP B   6       4.358  88.429  61.910  1.00  0.00     0.241 C 
ATOM     65  N   VAL B   7       4.091  87.275  62.514  1.00  6.11    -0.344 N 
ATOM     66  H   VAL B   7       4.782  86.856  63.068  1.00  0.23     0.163 HD
ATOM     67  O   TRP B   6       3.546  89.018  61.196  1.00  0.00    -0.271 OA
BRANCH  65  68
ATOM     68  CA  VAL B   7       2.798  86.618  62.372  1.00  5.65     0.189 C 
BRANCH  68  69
ATOM     69  CB  VAL B   7       2.928  85.298  61.586  1.00  1.15     0.010 C 
ATOM     70  CG1 VAL B   7       2.681  85.533  60.103  1.00  4.96     0.012 C 
ATOM     71  CG2 VAL B   7       4.295  84.669  61.813  1.00  9.83     0.012 C 
ENDBRANCH  68  69
BRANCH  68  72
ATOM     72  C   VAL B   7       2.175  86.328  63.734  1.00  4.44     0.197 C 
ATOM     73  OXT VAL B   7       1.611  85.228  63.905  1.00  0.00    -0.646 OA
ATOM     74  O   VAL B   7       2.259  87.205  64.619  1.00  0.00    -0.646 OA
ENDBRANCH  68  72
ENDBRANCH  65  68
ENDBRANCH  52  64
ENDBRANCH  49  52
ENDBRANCH  43  48
ENDBRANCH  41  43
ENDBRANCH   1  39
TORSDOF 32
ENDMDL
MODEL 5
REMARK VINA RESULT:      -6.7      2.330      5.005
REMARK  32 active torsions:
REMARK  status: ('A' for Active; 'I' for Inactive)
REMARK    1  A    between atoms: N_1  and  CA_2 
REMARK    2  A    between atoms: CA_2  and  CB_5 
REMARK    3  A    between atoms: CA_2  and  C_3 
REMARK       I    between atoms: C_3  and  N_14 
REMARK    4  A    between atoms: CB_5  and  CG_6 
REMARK    5  A    between atoms: CG_6  and  CD_7 
REMARK    6  A    between atoms: CD_7  and  CE_8 
REMARK    7  A    between atoms: CE_8  and  NZ_9 
REMARK    8  A    between atoms: N_14  and  CA_15 
REMARK    9  A    between atoms: CA_15  and  C_16 
REMARK   10  A    between atoms: CA_15  and  CB_18 
REMARK       I    between atoms: C_16  and  N_22 
REMARK   11  A    between atoms: CB_18  and  SG_19 
REMARK   12  A    between atoms: N_22  and  CA_23 
REMARK   13  A    between atoms: CA_23  and  CB_26 
REMARK   14  A    between atoms: CA_23  and  C_24 
REMARK       I    between atoms: C_24  and  N_37 
REMARK   15  A    between atoms: CB_26  and  CG_27 
REMARK   16  A    between atoms: CG_27  and  SD_28 
REMARK   17  A    between atoms: CA_31  and  N_37 
REMARK   18  A    between atoms: CA_31  and  CB_33 
REMARK   19  A    between atoms: CA_31  and  C_32 
REMARK       I    between atoms: C_32  and  N_47 
REMARK   20  A    between atoms: CB_33  and  CG_34 
REMARK   21  A    between atoms: CG_34  and  CD_35 
REMARK   22  A    between atoms: CA_41  and  N_47 
REMARK   23  A    between atoms: CA_41  and  CB_43 
REMARK   24  A    between atoms: CA_41  and  C_42 
REMARK       I    between atoms: C_42  and  N_63 
REMARK   25  A    between atoms: CB_43  and  OG1_49 
REMARK   26  A    between atoms: CA_50  and  CB_52 
REMARK   27  A    between atoms: CA_50  and  N_63 
REMARK   28  A    between atoms: CA_50  and  C_51 
REMARK       I    between atoms: C_51  and  N_72 
REMARK   29  A    between atoms: CB_52  and  CG_53 
REMARK   30  A    between atoms: CA_66  and  N_72 
REMARK   31  A    between atoms: CA_66  and  CB_68 
REMARK   32  A    between atoms: CA_66  and  C_67 
ROOT
ATOM      1  CA  GLU B   4       9.147  90.304  66.637  1.00  0.00     0.177 C 
ENDROOT
BRANCH   1   2
ATOM      2  N   GLU B   4       9.282  91.552  65.890  1.00  0.00    -0.346 N 
ATOM      3  H   GLU B   4       8.475  92.027  65.601  1.00  0.23     0.163 HD
ATOM      4  C   MET B   3      10.476  92.052  65.582  1.00  0.00     0.241 C 
ATOM      5  O   MET B   3      11.529  91.508  65.924  1.00  0.00    -0.271 OA
BRANCH   4   6
ATOM      6  CA  MET B   3      10.498  93.350  64.810  1.00  0.00     0.177 C 
BRANCH   6   7
ATOM      7  N   MET B   3      11.506  93.314  63.754  1.00  0.00    -0.346 N 
ATOM      8  C   CYS B   2      12.557  94.156  63.735  1.00  0.00     0.241 C 
ATOM      9  O   CYS B   2      12.732  95.003  64.607  1.00  0.00    -0.271 OA
ATOM     10  H   MET B   3      11.413  92.654  63.032  1.00  0.00     0.163 HD
BRANCH   8  11
ATOM     11  CA  CYS B   2      13.534  93.974  62.596  1.00  0.00     0.185 C 
BRANCH  11  12
ATOM     12  N   CYS B   2      13.582  95.167  61.755  1.00  0.00    -0.345 N 
ATOM     13  H   CYS B   2      14.453  95.503  61.448  1.00  0.00     0.163 HD
ATOM     14  C   LYS B   1      12.470  95.812  61.392  1.00  0.00     0.254 C 
ATOM     15  O   LYS B   1      11.345  95.406  61.702  1.00  0.00    -0.271 OA
BRANCH  14  16
ATOM     16  CA  LYS B   1      12.660  97.042  60.536  1.00  0.00     0.350 C 
BRANCH  16  17
ATOM     17  N   LYS B   1      13.269  96.698  59.254  1.00  0.00     0.312 N 
ATOM     18  H   LYS B   1      13.514  95.659  59.242  1.00  0.00     0.359 HD
ENDBRANCH  16  17
BRANCH  16  19
ATOM     19  CB  LYS B   1      11.306  97.762  60.289  1.00  0.00     0.048 C 
BRANCH  19  20
ATOM     20  CG  LYS B   1      11.157  98.318  58.851  1.00  0.00     0.004 C 
BRANCH  20  21
ATOM     21  CD  LYS B   1      10.000  97.719  58.046  1.00  0.00     0.027 C 
BRANCH  21  22
ATOM     22  CE  LYS B   1       9.880  98.459  56.706  1.00  0.00     0.229 C 
BRANCH  22  23
ATOM     23  NZ  LYS B   1      10.170  99.889  56.909  1.00  0.00    -0.079 N 
ATOM     24  HZ3 LYS B   1       9.628 100.390  56.219  1.00  0.00     0.274 HD
ATOM     25  HZ2 LYS B   1      11.170 100.086  56.800  1.00  0.00     0.274 HD
ATOM     26  HZ1 LYS B   1       9.924 100.177  57.863  1.00  0.00     0.274 HD
ENDBRANCH  22  23
ENDBRANCH  21  22
ENDBRANCH  20  21
ENDBRANCH  19  20
ENDBRANCH  16  19
ENDBRANCH  14  16
ENDBRANCH  11  12
BRANCH  11  27
ATOM     27  CB  CYS B   2      14.960  93.664  63.088  1.00  0.00     0.105 C 
BRANCH  27  28
ATOM     28  SG  CYS B   2      15.041  92.011  63.816  1.00  0.00    -0.180 SA
ATOM     29  HG  CYS B   2      16.304  91.754  63.486  1.00  0.00     0.101 HD
ENDBRANCH  27  28
ENDBRANCH  11  27
ENDBRANCH   8  11
ENDBRANCH   6   7
BRANCH   6  30
ATOM     30  CB  MET B   3       9.103  93.654  64.197  1.00  0.00     0.045 C 
BRANCH  30  31
ATOM     31  CG  MET B   3       8.998  93.526  62.662  1.00  0.00     0.076 C 
BRANCH  31  32
ATOM     32  SD  MET B   3       7.554  92.544  62.228  1.00  0.00    -0.173 SA
ATOM     33  CE  MET B   3       8.155  90.936  62.763  1.00  0.00     0.089 C 
ENDBRANCH  31  32
ENDBRANCH  30  31
ENDBRANCH   6  30
ENDBRANCH   4   6
ENDBRANCH   1   2
BRANCH   1  34
ATOM     34  CB  GLU B   4       9.028  90.585  68.136  1.00  0.00     0.045 C 
BRANCH  34  35
ATOM     35  CG  GLU B   4       9.152  89.339  68.996  1.00  0.00     0.116 C 
BRANCH  35  36
ATOM     36  CD  GLU B   4       7.848  88.959  69.671  1.00  0.00     0.172 C 
ATOM     37  OE2 GLU B   4       7.840  87.969  70.432  1.00  0.00    -0.648 OA
ATOM     38  OE1 GLU B   4       6.836  89.651  69.437  1.00  0.00    -0.648 OA
ENDBRANCH  35  36
ENDBRANCH  34  35
ENDBRANCH   1  34
BRANCH   1  39
ATOM     39  C   GLU B   4       7.929  89.516  66.163  1.00  0.00     0.241 C 
ATOM     40  O   GLU B   4       8.053  88.381  65.701  1.00  0.00    -0.271 OA
ATOM     41  N   THR B   5       6.754  90.129  66.278  1.00  7.70    -0.344 N 
ATOM     42  H   THR B   5       6.725  91.034  66.653  1.00  0.23     0.163 HD
BRANCH  41  43
ATOM     43  CA  THR B   5       5.508  89.493  65.860  1.00  7.88     0.205 C 
BRANCH  43  44
ATOM     44  CB  THR B   5       4.314  90.172  66.534  1.00  4.05     0.146 C 
ATOM     45  CG2 THR B   5       3.133  89.247  66.729  1.00  3.72     0.042 C 
BRANCH  44  46
ATOM     46  OG1 THR B   5       4.678  90.677  67.806  1.00  7.31    -0.393 OA
ATOM     47  HG1 THR B   5       4.700  89.958  68.441  1.00  0.23     0.210 HD
ENDBRANCH  44  46
ENDBRANCH  43  44
BRANCH  43  48
ATOM     48  C   THR B   5       5.355  89.556  64.344  1.00  7.05     0.243 C 
ATOM     49  N   TRP B   6       5.663  88.450  63.675  1.00  0.00    -0.346 N 
ATOM     50  H   TRP B   6       5.967  87.661  64.170  1.00  0.23     0.163 HD
ATOM     51  O   THR B   5       4.969  90.586  63.792  1.00  6.06    -0.271 OA
BRANCH  49  52
ATOM     52  CA  TRP B   6       5.563  88.383  62.223  1.00  0.00     0.181 C 
BRANCH  52  53
ATOM     53  CB  TRP B   6       6.924  88.043  61.615  1.00  0.00     0.075 C 
BRANCH  53  54
ATOM     54  CG  TRP B   6       6.878  87.896  60.125  1.00  0.00    -0.028 A 
ATOM     55  CD2 TRP B   6       7.010  86.679  59.380  1.00  0.00    -0.002 A 
ATOM     56  CE2 TRP B   6       6.897  87.011  58.017  1.00  0.00     0.042 A 
ATOM     57  CE3 TRP B   6       7.213  85.342  59.734  1.00  0.00     0.014 A 
ATOM     58  CZ2 TRP B   6       6.980  86.054  57.009  1.00  0.00     0.030 A 
ATOM     59  NE1 TRP B   6       6.706  88.366  57.937  1.00  0.00    -0.365 N 
ATOM     60  CH2 TRP B   6       7.179  84.753  57.383  1.00  0.00     0.002 A 
ATOM     61  CZ3 TRP B   6       7.294  84.393  58.731  1.00  0.00     0.001 A 
ATOM     62  HE1 TRP B   6       6.594  88.879  57.109  1.00  0.23     0.165 HD
ATOM     63  CD1 TRP B   6       6.696  88.889  59.207  1.00  0.00     0.096 A 
ENDBRANCH  53  54
ENDBRANCH  52  53
BRANCH  52  64
ATOM     64  C   TRP B   6       4.523  87.352  61.795  1.00  0.00     0.241 C 
ATOM     65  N   VAL B   7       3.520  87.809  61.052  1.00  6.11    -0.344 N 
ATOM     66  H   VAL B   7       3.493  88.759  60.817  1.00  0.23     0.163 HD
ATOM     67  O   TRP B   6       4.627  86.173  62.134  1.00  0.00    -0.271 OA
BRANCH  65  68
ATOM     68  CA  VAL B   7       2.457  86.931  60.578  1.00  5.65     0.189 C 
BRANCH  68  69
ATOM     69  CB  VAL B   7       1.071  87.576  60.776  1.00  1.15     0.010 C 
ATOM     70  CG1 VAL B   7       0.131  86.614  61.487  1.00  4.96     0.012 C 
ATOM     71  CG2 VAL B   7       1.192  88.882  61.548  1.00  9.83     0.012 C 
ENDBRANCH  68  69
BRANCH  68  72
ATOM     72  C   VAL B   7       2.642  86.588  59.103  1.00  4.44     0.197 C 
ATOM     73  OXT VAL B   7       1.754  86.937  58.299  1.00  0.00    -0.646 OA
ATOM     74  O   VAL B   7       3.675  85.974  58.766  1.00  0.00    -0.646 OA
ENDBRANCH  68  72
ENDBRANCH  65  68
ENDBRANCH  52  64
ENDBRANCH  49  52
ENDBRANCH  43  48
ENDBRANCH  41  43
ENDBRANCH   1  39
TORSDOF 32
ENDMDL
MODEL 6
REMARK VINA RESULT:      -5.7      2.499      4.301
REMARK  32 active torsions:
REMARK  status: ('A' for Active; 'I' for Inactive)
REMARK    1  A    between atoms: N_1  and  CA_2 
REMARK    2  A    between atoms: CA_2  and  CB_5 
REMARK    3  A    between atoms: CA_2  and  C_3 
REMARK       I    between atoms: C_3  and  N_14 
REMARK    4  A    between atoms: CB_5  and  CG_6 
REMARK    5  A    between atoms: CG_6  and  CD_7 
REMARK    6  A    between atoms: CD_7  and  CE_8 
REMARK    7  A    between atoms: CE_8  and  NZ_9 
REMARK    8  A    between atoms: N_14  and  CA_15 
REMARK    9  A    between atoms: CA_15  and  C_16 
REMARK   10  A    between atoms: CA_15  and  CB_18 
REMARK       I    between atoms: C_16  and  N_22 
REMARK   11  A    between atoms: CB_18  and  SG_19 
REMARK   12  A    between atoms: N_22  and  CA_23 
REMARK   13  A    between atoms: CA_23  and  CB_26 
REMARK   14  A    between atoms: CA_23  and  C_24 
REMARK       I    between atoms: C_24  and  N_37 
REMARK   15  A    between atoms: CB_26  and  CG_27 
REMARK   16  A    between atoms: CG_27  and  SD_28 
REMARK   17  A    between atoms: CA_31  and  N_37 
REMARK   18  A    between atoms: CA_31  and  CB_33 
REMARK   19  A    between atoms: CA_31  and  C_32 
REMARK       I    between atoms: C_32  and  N_47 
REMARK   20  A    between atoms: CB_33  and  CG_34 
REMARK   21  A    between atoms: CG_34  and  CD_35 
REMARK   22  A    between atoms: CA_41  and  N_47 
REMARK   23  A    between atoms: CA_41  and  CB_43 
REMARK   24  A    between atoms: CA_41  and  C_42 
REMARK       I    between atoms: C_42  and  N_63 
REMARK   25  A    between atoms: CB_43  and  OG1_49 
REMARK   26  A    between atoms: CA_50  and  CB_52 
REMARK   27  A    between atoms: CA_50  and  N_63 
REMARK   28  A    between atoms: CA_50  and  C_51 
REMARK       I    between atoms: C_51  and  N_72 
REMARK   29  A    between atoms: CB_52  and  CG_53 
REMARK   30  A    between atoms: CA_66  and  N_72 
REMARK   31  A    between atoms: CA_66  and  CB_68 
REMARK   32  A    between atoms: CA_66  and  C_67 
ROOT
ATOM      1  CA  GLU B   4       8.549  89.982  65.245  1.00  0.00     0.177 C 
ENDROOT
BRANCH   1   2
ATOM      2  N   GLU B   4       8.578  91.286  64.585  1.00  0.00    -0.346 N 
ATOM      3  H   GLU B   4       7.766  91.835  64.573  1.00  0.23     0.163 HD
ATOM      4  C   MET B   3       9.677  91.739  63.990  1.00  0.00     0.241 C 
ATOM      5  O   MET B   3      10.734  91.102  63.977  1.00  0.00    -0.271 OA
BRANCH   4   6
ATOM      6  CA  MET B   3       9.595  93.101  63.342  1.00  0.00     0.177 C 
BRANCH   6   7
ATOM      7  N   MET B   3      10.898  93.518  62.831  1.00  0.00    -0.346 N 
ATOM      8  C   CYS B   2      11.727  94.311  63.535  1.00  0.00     0.241 C 
ATOM      9  O   CYS B   2      11.436  94.731  64.652  1.00  0.00    -0.271 OA
ATOM     10  H   MET B   3      11.180  93.208  61.941  1.00  0.00     0.163 HD
BRANCH   8  11
ATOM     11  CA  CYS B   2      13.055  94.628  62.888  1.00  0.00     0.185 C 
BRANCH  11  12
ATOM     12  N   CYS B   2      12.866  95.168  61.545  1.00  0.00    -0.345 N 
ATOM     13  H   CYS B   2      13.363  94.774  60.794  1.00  0.00     0.163 HD
ATOM     14  C   LYS B   1      12.032  96.187  61.312  1.00  0.00     0.254 C 
ATOM     15  O   LYS B   1      11.342  96.688  62.206  1.00  0.00    -0.271 OA
BRANCH  14  16
ATOM     16  CA  LYS B   1      11.943  96.663  59.881  1.00  0.00     0.350 C 
BRANCH  16  17
ATOM     17  N   LYS B   1      10.810  97.565  59.700  1.00  0.00     0.312 N 
ATOM     18  H   LYS B   1       9.928  96.997  59.500  1.00  0.00     0.359 HD
ENDBRANCH  16  17
BRANCH  16  19
ATOM     19  CB  LYS B   1      13.251  97.383  59.453  1.00  0.00     0.048 C 
BRANCH  19  20
ATOM     20  CG  LYS B   1      13.067  98.902  59.210  1.00  0.00     0.004 C 
BRANCH  20  21
ATOM     21  CD  LYS B   1      13.479  99.386  57.818  1.00  0.00     0.027 C 
BRANCH  21  22
ATOM     22  CE  LYS B   1      12.221  99.711  57.002  1.00  0.00     0.229 C 
BRANCH  22  23
ATOM     23  NZ  LYS B   1      12.601 100.003  55.609  1.00  0.00    -0.079 N 
ATOM     24  HZ3 LYS B   1      12.504 101.002  55.491  1.00  0.00     0.274 HD
ATOM     25  HZ2 LYS B   1      12.006  99.498  54.945  1.00  0.00     0.274 HD
ATOM     26  HZ1 LYS B   1      13.563  99.694  55.423  1.00  0.00     0.274 HD
ENDBRANCH  22  23
ENDBRANCH  21  22
ENDBRANCH  20  21
ENDBRANCH  19  20
ENDBRANCH  16  19
ENDBRANCH  14  16
ENDBRANCH  11  12
BRANCH  11  27
ATOM     27  CB  CYS B   2      13.884  95.634  63.708  1.00  0.00     0.105 C 
BRANCH  27  28
ATOM     28  SG  CYS B   2      15.653  95.370  63.447  1.00  0.00    -0.180 SA
ATOM     29  HG  CYS B   2      15.987  95.247  64.730  1.00  0.00     0.101 HD
ENDBRANCH  27  28
ENDBRANCH  11  27
ENDBRANCH   8  11
ENDBRANCH   6   7
BRANCH   6  30
ATOM     30  CB  MET B   3       8.552  93.105  62.191  1.00  0.00     0.045 C 
BRANCH  30  31
ATOM     31  CG  MET B   3       7.077  93.276  62.618  1.00  0.00     0.076 C 
BRANCH  31  32
ATOM     32  SD  MET B   3       6.061  93.629  61.175  1.00  0.00    -0.173 SA
ATOM     33  CE  MET B   3       4.630  94.315  62.018  1.00  0.00     0.089 C 
ENDBRANCH  31  32
ENDBRANCH  30  31
ENDBRANCH   6  30
ENDBRANCH   4   6
ENDBRANCH   1   2
BRANCH   1  34
ATOM     34  CB  GLU B   4       8.905  90.122  66.726  1.00  0.00     0.045 C 
BRANCH  34  35
ATOM     35  CG  GLU B   4       8.481  91.452  67.326  1.00  0.00     0.116 C 
BRANCH  35  36
ATOM     36  CD  GLU B   4       6.974  91.592  67.436  1.00  0.00     0.172 C 
ATOM     37  OE2 GLU B   4       6.401  92.427  66.706  1.00  0.00    -0.648 OA
ATOM     38  OE1 GLU B   4       6.369  90.867  68.253  1.00  0.00    -0.648 OA
ENDBRANCH  35  36
ENDBRANCH  34  35
ENDBRANCH   1  34
BRANCH   1  39
ATOM     39  C   GLU B   4       7.175  89.333  65.105  1.00  0.00     0.241 C 
ATOM     40  O   GLU B   4       6.807  88.461  65.893  1.00  0.00    -0.271 OA
ATOM     41  N   THR B   5       6.425  89.760  64.094  1.00  7.70    -0.344 N 
ATOM     42  H   THR B   5       6.779  90.456  63.501  1.00  0.23     0.163 HD
BRANCH  41  43
ATOM     43  CA  THR B   5       5.092  89.223  63.840  1.00  7.88     0.205 C 
BRANCH  43  44
ATOM     44  CB  THR B   5       4.181  90.311  63.268  1.00  4.05     0.146 C 
ATOM     45  CG2 THR B   5       4.190  91.586  64.083  1.00  3.72     0.042 C 
BRANCH  44  46
ATOM     46  OG1 THR B   5       4.567  90.643  61.947  1.00  7.31    -0.393 OA
ATOM     47  HG1 THR B   5       5.425  91.072  61.962  1.00  0.23     0.210 HD
ENDBRANCH  44  46
ENDBRANCH  43  44
BRANCH  43  48
ATOM     48  C   THR B   5       5.162  88.044  62.875  1.00  7.05     0.243 C 
ATOM     49  N   TRP B   6       4.001  87.585  62.421  1.00  0.00    -0.346 N 
ATOM     50  H   TRP B   6       3.169  88.012  62.716  1.00  0.23     0.163 HD
ATOM     51  O   THR B   5       6.246  87.558  62.552  1.00  6.06    -0.271 OA
BRANCH  49  52
ATOM     52  CA  TRP B   6       3.933  86.460  61.497  1.00  0.00     0.181 C 
BRANCH  52  53
ATOM     53  CB  TRP B   6       2.496  85.947  61.395  1.00  0.00     0.075 C 
BRANCH  53  54
ATOM     54  CG  TRP B   6       2.006  85.326  62.668  1.00  0.00    -0.028 A 
ATOM     55  CD2 TRP B   6       2.472  84.108  63.261  1.00  0.00    -0.002 A 
ATOM     56  CE2 TRP B   6       1.737  83.915  64.447  1.00  0.00     0.042 A 
ATOM     57  CE3 TRP B   6       3.436  83.162  62.904  1.00  0.00     0.014 A 
ATOM     58  CZ2 TRP B   6       1.940  82.815  65.276  1.00  0.00     0.030 A 
ATOM     59  NE1 TRP B   6       0.867  84.967  64.568  1.00  0.00    -0.365 N 
ATOM     60  CH2 TRP B   6       2.890  81.904  64.903  1.00  0.00     0.002 A 
ATOM     61  CZ3 TRP B   6       3.636  82.070  63.730  1.00  0.00     0.001 A 
ATOM     62  HE1 TRP B   6       0.228  85.097  65.300  1.00  0.23     0.165 HD
ATOM     63  CD1 TRP B   6       1.035  85.809  63.495  1.00  0.00     0.096 A 
ENDBRANCH  53  54
ENDBRANCH  52  53
BRANCH  52  64
ATOM     64  C   TRP B   6       4.449  86.856  60.118  1.00  0.00     0.241 C 
ATOM     65  N   VAL B   7       5.672  86.434  59.808  1.00  6.11    -0.344 N 
ATOM     66  H   VAL B   7       6.172  85.902  60.460  1.00  0.23     0.163 HD
ATOM     67  O   TRP B   6       3.757  87.531  59.355  1.00  0.00    -0.271 OA
BRANCH  65  68
ATOM     68  CA  VAL B   7       6.286  86.744  58.523  1.00  5.65     0.189 C 
BRANCH  68  69
ATOM     69  CB  VAL B   7       7.368  87.832  58.672  1.00  1.15     0.010 C 
ATOM     70  CG1 VAL B   7       6.749  89.219  58.571  1.00  4.96     0.012 C 
ATOM     71  CG2 VAL B   7       8.117  87.670  59.986  1.00  9.83     0.012 C 
ENDBRANCH  68  69
BRANCH  68  72
ATOM     72  C   VAL B   7       6.911  85.501  57.897  1.00  4.44     0.197 C 
ATOM     73  OXT VAL B   7       7.222  84.554  58.646  1.00  0.00    -0.646 OA
ATOM     74  O   VAL B   7       7.082  85.488  56.660  1.00  0.00    -0.646 OA
ENDBRANCH  68  72
ENDBRANCH  65  68
ENDBRANCH  52  64
ENDBRANCH  49  52
ENDBRANCH  43  48
ENDBRANCH  41  43
ENDBRANCH   1  39
TORSDOF 32
ENDMDL
MODEL 7
REMARK VINA RESULT:      -5.3      2.627      4.459
REMARK  32 active torsions:
REMARK  status: ('A' for Active; 'I' for Inactive)
REMARK    1  A    between atoms: N_1  and  CA_2 
REMARK    2  A    between atoms: CA_2  and  CB_5 
REMARK    3  A    between atoms: CA_2  and  C_3 
REMARK       I    between atoms: C_3  and  N_14 
REMARK    4  A    between atoms: CB_5  and  CG_6 
REMARK    5  A    between atoms: CG_6  and  CD_7 
REMARK    6  A    between atoms: CD_7  and  CE_8 
REMARK    7  A    between atoms: CE_8  and  NZ_9 
REMARK    8  A    between atoms: N_14  and  CA_15 
REMARK    9  A    between atoms: CA_15  and  C_16 
REMARK   10  A    between atoms: CA_15  and  CB_18 
REMARK       I    between atoms: C_16  and  N_22 
REMARK   11  A    between atoms: CB_18  and  SG_19 
REMARK   12  A    between atoms: N_22  and  CA_23 
REMARK   13  A    between atoms: CA_23  and  CB_26 
REMARK   14  A    between atoms: CA_23  and  C_24 
REMARK       I    between atoms: C_24  and  N_37 
REMARK   15  A    between atoms: CB_26  and  CG_27 
REMARK   16  A    between atoms: CG_27  and  SD_28 
REMARK   17  A    between atoms: CA_31  and  N_37 
REMARK   18  A    between atoms: CA_31  and  CB_33 
REMARK   19  A    between atoms: CA_31  and  C_32 
REMARK       I    between atoms: C_32  and  N_47 
REMARK   20  A    between atoms: CB_33  and  CG_34 
REMARK   21  A    between atoms: CG_34  and  CD_35 
REMARK   22  A    between atoms: CA_41  and  N_47 
REMARK   23  A    between atoms: CA_41  and  CB_43 
REMARK   24  A    between atoms: CA_41  and  C_42 
REMARK       I    between atoms: C_42  and  N_63 
REMARK   25  A    between atoms: CB_43  and  OG1_49 
REMARK   26  A    between atoms: CA_50  and  CB_52 
REMARK   27  A    between atoms: CA_50  and  N_63 
REMARK   28  A    between atoms: CA_50  and  C_51 
REMARK       I    between atoms: C_51  and  N_72 
REMARK   29  A    between atoms: CB_52  and  CG_53 
REMARK   30  A    between atoms: CA_66  and  N_72 
REMARK   31  A    between atoms: CA_66  and  CB_68 
REMARK   32  A    between atoms: CA_66  and  C_67 
ROOT
ATOM      1  CA  GLU B   4       8.628  90.248  65.381  1.00  0.00     0.177 C 
ENDROOT
BRANCH   1   2
ATOM      2  N   GLU B   4       8.780  91.618  64.897  1.00  0.00    -0.346 N 
ATOM      3  H   GLU B   4       8.133  92.299  65.175  1.00  0.23     0.163 HD
ATOM      4  C   MET B   3       9.771  91.959  64.077  1.00  0.00     0.241 C 
ATOM      5  O   MET B   3      10.623  91.152  63.697  1.00  0.00    -0.271 OA
BRANCH   4   6
ATOM      6  CA  MET B   3       9.835  93.403  63.642  1.00  0.00     0.177 C 
BRANCH   6   7
ATOM      7  N   MET B   3      11.106  93.698  62.986  1.00  0.00    -0.346 N 
ATOM      8  C   CYS B   2      12.064  94.438  63.576  1.00  0.00     0.241 C 
ATOM      9  O   CYS B   2      11.927  94.908  64.701  1.00  0.00    -0.271 OA
ATOM     10  H   MET B   3      11.267  93.344  62.084  1.00  0.00     0.163 HD
BRANCH   8  11
ATOM     11  CA  CYS B   2      13.339  94.627  62.786  1.00  0.00     0.185 C 
BRANCH  11  12
ATOM     12  N   CYS B   2      13.057  95.178  61.463  1.00  0.00    -0.345 N 
ATOM     13  H   CYS B   2      13.502  94.792  60.677  1.00  0.00     0.163 HD
ATOM     14  C   LYS B   1      12.207  96.196  61.297  1.00  0.00     0.254 C 
ATOM     15  O   LYS B   1      11.579  96.688  62.240  1.00  0.00    -0.271 OA
BRANCH  14  16
ATOM     16  CA  LYS B   1      12.019  96.684  59.879  1.00  0.00     0.350 C 
BRANCH  16  17
ATOM     17  N   LYS B   1      10.864  97.572  59.781  1.00  0.00     0.312 N 
ATOM     18  H   LYS B   1      11.176  98.581  59.937  1.00  0.00     0.359 HD
ENDBRANCH  16  17
BRANCH  16  19
ATOM     19  CB  LYS B   1      13.287  97.425  59.374  1.00  0.00     0.048 C 
BRANCH  19  20
ATOM     20  CG  LYS B   1      13.006  98.873  58.902  1.00  0.00     0.004 C 
BRANCH  20  21
ATOM     21  CD  LYS B   1      13.807  99.317  57.675  1.00  0.00     0.027 C 
BRANCH  21  22
ATOM     22  CE  LYS B   1      12.881 100.076  56.714  1.00  0.00     0.229 C 
BRANCH  22  23
ATOM     23  NZ  LYS B   1      12.219 101.175  57.438  1.00  0.00    -0.079 N 
ATOM     24  HZ3 LYS B   1      11.309 100.830  57.707  1.00  0.00     0.274 HD
ATOM     25  HZ2 LYS B   1      12.133 102.011  56.851  1.00  0.00     0.274 HD
ATOM     26  HZ1 LYS B   1      12.773 101.457  58.256  1.00  0.00     0.274 HD
ENDBRANCH  22  23
ENDBRANCH  21  22
ENDBRANCH  20  21
ENDBRANCH  19  20
ENDBRANCH  16  19
ENDBRANCH  14  16
ENDBRANCH  11  12
BRANCH  11  27
ATOM     27  CB  CYS B   2      14.341  95.554  63.499  1.00  0.00     0.105 C 
BRANCH  27  28
ATOM     28  SG  CYS B   2      16.030  94.936  63.313  1.00  0.00    -0.180 SA
ATOM     29  HG  CYS B   2      16.625  95.879  64.040  1.00  0.00     0.101 HD
ENDBRANCH  27  28
ENDBRANCH  11  27
ENDBRANCH   8  11
ENDBRANCH   6   7
BRANCH   6  30
ATOM     30  CB  MET B   3       8.658  93.747  62.687  1.00  0.00     0.045 C 
BRANCH  30  31
ATOM     31  CG  MET B   3       7.823  92.549  62.187  1.00  0.00     0.076 C 
BRANCH  31  32
ATOM     32  SD  MET B   3       6.720  93.081  60.868  1.00  0.00    -0.173 SA
ATOM     33  CE  MET B   3       5.960  91.494  60.499  1.00  0.00     0.089 C 
ENDBRANCH  31  32
ENDBRANCH  30  31
ENDBRANCH   6  30
ENDBRANCH   4   6
ENDBRANCH   1   2
BRANCH   1  34
ATOM     34  CB  GLU B   4       9.176  90.117  66.803  1.00  0.00     0.045 C 
BRANCH  34  35
ATOM     35  CG  GLU B   4       8.516  89.009  67.606  1.00  0.00     0.116 C 
BRANCH  35  36
ATOM     36  CD  GLU B   4       9.479  87.895  67.971  1.00  0.00     0.172 C 
ATOM     37  OE2 GLU B   4      10.391  88.143  68.786  1.00  0.00    -0.648 OA
ATOM     38  OE1 GLU B   4       9.319  86.776  67.441  1.00  0.00    -0.648 OA
ENDBRANCH  35  36
ENDBRANCH  34  35
ENDBRANCH   1  34
BRANCH   1  39
ATOM     39  C   GLU B   4       7.163  89.822  65.353  1.00  0.00     0.241 C 
ATOM     40  O   GLU B   4       6.568  89.543  66.395  1.00  0.00    -0.271 OA
ATOM     41  N   THR B   5       6.590  89.770  64.154  1.00  7.70    -0.344 N 
ATOM     42  H   THR B   5       7.121  90.003  63.364  1.00  0.23     0.163 HD
BRANCH  41  43
ATOM     43  CA  THR B   5       5.196  89.375  63.981  1.00  7.88     0.205 C 
BRANCH  43  44
ATOM     44  CB  THR B   5       4.338  90.593  63.633  1.00  4.05     0.146 C 
ATOM     45  CG2 THR B   5       3.059  90.673  64.438  1.00  3.72     0.042 C 
BRANCH  44  46
ATOM     46  OG1 THR B   5       5.059  91.792  63.853  1.00  7.31    -0.393 OA
ATOM     47  HG1 THR B   5       5.975  91.583  64.047  1.00  0.23     0.210 HD
ENDBRANCH  44  46
ENDBRANCH  43  44
BRANCH  43  48
ATOM     48  C   THR B   5       5.069  88.319  62.887  1.00  7.05     0.243 C 
ATOM     49  N   TRP B   6       4.006  88.417  62.096  1.00  0.00    -0.346 N 
ATOM     50  H   TRP B   6       3.364  89.143  62.243  1.00  0.23     0.163 HD
ATOM     51  O   THR B   5       5.915  87.434  62.765  1.00  6.06    -0.271 OA
BRANCH  49  52
ATOM     52  CA  TRP B   6       3.767  87.468  61.017  1.00  0.00     0.181 C 
BRANCH  52  53
ATOM     53  CB  TRP B   6       2.298  87.506  60.594  1.00  0.00     0.075 C 
BRANCH  53  54
ATOM     54  CG  TRP B   6       2.082  87.037  59.188  1.00  0.00    -0.028 A 
ATOM     55  CD2 TRP B   6       1.328  87.704  58.169  1.00  0.00    -0.002 A 
ATOM     56  CE2 TRP B   6       1.400  86.909  57.009  1.00  0.00     0.042 A 
ATOM     57  CE3 TRP B   6       0.598  88.895  58.125  1.00  0.00     0.014 A 
ATOM     58  CZ2 TRP B   6       0.772  87.269  55.821  1.00  0.00     0.030 A 
ATOM     59  NE1 TRP B   6       2.163  85.810  57.310  1.00  0.00    -0.365 N 
ATOM     60  CH2 TRP B   6       0.063  88.440  55.805  1.00  0.00     0.002 A 
ATOM     61  CZ3 TRP B   6      -0.026  89.250  56.943  1.00  0.00     0.001 A 
ATOM     62  HE1 TRP B   6       2.384  85.083  56.691  1.00  0.23     0.165 HD
ATOM     63  CD1 TRP B   6       2.568  85.895  58.620  1.00  0.00     0.096 A 
ENDBRANCH  53  54
ENDBRANCH  52  53
BRANCH  52  64
ATOM     64  C   TRP B   6       4.666  87.765  59.821  1.00  0.00     0.241 C 
ATOM     65  N   VAL B   7       5.628  86.880  59.577  1.00  6.11    -0.344 N 
ATOM     66  H   VAL B   7       5.713  86.097  60.159  1.00  0.23     0.163 HD
ATOM     67  O   TRP B   6       4.494  88.776  59.138  1.00  0.00    -0.271 OA
BRANCH  65  68
ATOM     68  CA  VAL B   7       6.558  87.045  58.468  1.00  5.65     0.189 C 
BRANCH  68  69
ATOM     69  CB  VAL B   7       7.803  87.845  58.899  1.00  1.15     0.010 C 
ATOM     70  CG1 VAL B   7       7.832  89.201  58.209  1.00  4.96     0.012 C 
ATOM     71  CG2 VAL B   7       7.840  88.009  60.411  1.00  9.83     0.012 C 
ENDBRANCH  68  69
BRANCH  68  72
ATOM     72  C   VAL B   7       7.000  85.694  57.913  1.00  4.44     0.197 C 
ATOM     73  OXT VAL B   7       6.967  85.522  56.678  1.00  0.00    -0.646 OA
ATOM     74  O   VAL B   7       7.378  84.821  58.722  1.00  0.00    -0.646 OA
ENDBRANCH  68  72
ENDBRANCH  65  68
ENDBRANCH  52  64
ENDBRANCH  49  52
ENDBRANCH  43  48
ENDBRANCH  41  43
ENDBRANCH   1  39
TORSDOF 32
ENDMDL
