MODEL 1
REMARK VINA RESULT:      -6.4      0.000      0.000
REMARK  31 active torsions:
REMARK  status: ('A' for Active; 'I' for Inactive)
REMARK    1  A    between atoms: N_1  and  CA_2 
REMARK    2  A    between atoms: CA_2  and  C_3 
REMARK    3  A    between atoms: CA_2  and  CB_5 
REMARK       I    between atoms: C_3  and  N_14 
REMARK    4  A    between atoms: CB_5  and  CG_6 
REMARK    5  A    between atoms: CG_6  and  CD_7 
REMARK    6  A    between atoms: CD_7  and  CE_8 
REMARK    7  A    between atoms: CE_8  and  NZ_9 
REMARK    8  A    between atoms: N_14  and  CA_15 
REMARK    9  A    between atoms: CA_15  and  C_16 
REMARK   10  A    between atoms: CA_15  and  CB_18 
REMARK       I    between atoms: C_16  and  N_22 
REMARK   11  A    between atoms: CB_18  and  SG_19 
REMARK   12  A    between atoms: N_22  and  CA_23 
REMARK   13  A    between atoms: CA_23  and  CB_26 
REMARK   14  A    between atoms: CA_23  and  C_24 
REMARK       I    between atoms: C_24  and  N_37 
REMARK   15  A    between atoms: CB_26  and  CG_27 
REMARK   16  A    between atoms: CA_31  and  N_37 
REMARK   17  A    between atoms: CA_31  and  CB_33 
REMARK   18  A    between atoms: CA_31  and  C_32 
REMARK       I    between atoms: C_32  and  N_47 
REMARK   19  A    between atoms: CB_33  and  CG_34 
REMARK   20  A    between atoms: CG_34  and  CD_35 
REMARK   21  A    between atoms: CA_41  and  N_47 
REMARK   22  A    between atoms: CA_41  and  CB_43 
REMARK   23  A    between atoms: CA_41  and  C_42 
REMARK       I    between atoms: C_42  and  N_63 
REMARK   24  A    between atoms: CB_43  and  OG1_49 
REMARK   25  A    between atoms: CA_50  and  CB_52 
REMARK   26  A    between atoms: CA_50  and  N_63 
REMARK   27  A    between atoms: CA_50  and  C_51 
REMARK       I    between atoms: C_51  and  N_72 
REMARK   28  A    between atoms: CB_52  and  CG_53 
REMARK   29  A    between atoms: CA_66  and  N_72 
REMARK   30  A    between atoms: CA_66  and  CB_68 
REMARK   31  A    between atoms: CA_66  and  C_67 
ROOT
ATOM      1  CA  GLU B   4       2.622  89.723  63.499  1.00  0.00     0.177 C 
ENDROOT
BRANCH   1   2
ATOM      2  N   GLU B   4       2.123  88.625  62.674  1.00  0.00    -0.346 N 
ATOM      3  H   GLU B   4       2.747  88.139  62.095  1.00  0.23     0.163 HD
ATOM      4  C   ASP B   3       0.838  88.277  62.680  1.00  0.00     0.241 C 
ATOM      5  O   ASP B   3       0.005  88.843  63.393  1.00  0.00    -0.271 OA
BRANCH   4   6
ATOM      6  CA  ASP B   3       0.440  87.124  61.791  1.00  0.00     0.186 C 
BRANCH   6   7
ATOM      7  CB  ASP B   3       0.582  85.770  62.541  1.00  0.00     0.147 C 
BRANCH   7   8
ATOM      8  CG  ASP B   3       0.869  84.549  61.654  1.00  0.00     0.175 C 
ATOM      9  OD2 ASP B   3      -0.061  83.752  61.415  1.00  0.00    -0.648 OA
ATOM     10  OD1 ASP B   3       2.008  84.411  61.161  1.00  0.00    -0.648 OA
ENDBRANCH   7   8
ENDBRANCH   6   7
BRANCH   6  11
ATOM     11  N   ASP B   3       1.227  87.114  60.561  1.00  0.00    -0.345 N 
ATOM     12  C   CYS B   2       1.008  87.995  59.566  1.00  0.00     0.241 C 
ATOM     13  O   CYS B   2       0.145  88.865  59.638  1.00  0.00    -0.271 OA
ATOM     14  H   ASP B   3       1.936  86.448  60.458  1.00  0.00     0.163 HD
BRANCH  12  15
ATOM     15  CA  CYS B   2       1.918  87.875  58.365  1.00  0.00     0.185 C 
BRANCH  15  16
ATOM     16  N   CYS B   2       3.320  87.847  58.773  1.00  0.00    -0.345 N 
ATOM     17  H   CYS B   2       3.714  87.001  59.081  1.00  0.00     0.163 HD
ATOM     18  C   LYS B   1       4.081  88.945  58.737  1.00  0.00     0.254 C 
ATOM     19  O   LYS B   1       3.656  90.024  58.311  1.00  0.00    -0.271 OA
BRANCH  18  20
ATOM     20  CA  LYS B   1       5.509  88.784  59.204  1.00  0.00     0.350 C 
BRANCH  20  21
ATOM     21  CB  LYS B   1       5.602  87.744  60.354  1.00  0.00     0.048 C 
BRANCH  21  22
ATOM     22  CG  LYS B   1       6.690  86.666  60.122  1.00  0.00     0.004 C 
BRANCH  22  23
ATOM     23  CD  LYS B   1       6.241  85.470  59.277  1.00  0.00     0.027 C 
BRANCH  23  24
ATOM     24  CE  LYS B   1       7.112  85.388  58.016  1.00  0.00     0.229 C 
BRANCH  24  25
ATOM     25  NZ  LYS B   1       6.247  85.240  56.833  1.00  0.00    -0.079 N 
ATOM     26  HZ3 LYS B   1       6.199  84.250  56.637  1.00  0.00     0.274 HD
ATOM     27  HZ2 LYS B   1       6.623  85.753  56.028  1.00  0.00     0.274 HD
ATOM     28  HZ1 LYS B   1       5.316  85.635  57.012  1.00  0.00     0.274 HD
ENDBRANCH  24  25
ENDBRANCH  23  24
ENDBRANCH  22  23
ENDBRANCH  21  22
ENDBRANCH  20  21
BRANCH  20  29
ATOM     29  N   LYS B   1       6.059  90.059  59.654  1.00  0.00     0.312 N 
ATOM     30  H   LYS B   1       5.303  90.614  60.165  1.00  0.00     0.359 HD
ENDBRANCH  20  29
ENDBRANCH  18  20
ENDBRANCH  15  16
BRANCH  15  31
ATOM     31  CB  CYS B   2       1.626  86.615  57.528  1.00  0.00     0.105 C 
BRANCH  31  32
ATOM     32  SG  CYS B   2       0.605  87.023  56.093  1.00  0.00    -0.180 SA
ATOM     33  HG  CYS B   2      -0.428  86.245  56.406  1.00  0.00     0.101 HD
ENDBRANCH  31  32
ENDBRANCH  15  31
ENDBRANCH  12  15
ENDBRANCH   6  11
ENDBRANCH   4   6
ENDBRANCH   1   2
BRANCH   1  34
ATOM     34  CB  GLU B   4       3.212  89.189  64.805  1.00  0.00     0.045 C 
BRANCH  34  35
ATOM     35  CG  GLU B   4       2.667  89.882  66.042  1.00  0.00     0.116 C 
BRANCH  35  36
ATOM     36  CD  GLU B   4       3.750  90.559  66.860  1.00  0.00     0.172 C 
ATOM     37  OE1 GLU B   4       3.893  90.219  68.053  1.00  0.00    -0.648 OA
ATOM     38  OE2 GLU B   4       4.454  91.430  66.306  1.00  0.00    -0.648 OA
ENDBRANCH  35  36
ENDBRANCH  34  35
ENDBRANCH   1  34
BRANCH   1  39
ATOM     39  C   GLU B   4       3.678  90.530  62.749  1.00  0.00     0.241 C 
ATOM     40  O   GLU B   4       3.697  90.554  61.518  1.00  0.00    -0.271 OA
ATOM     41  N   THR B   5       4.559  91.185  63.501  1.00  7.70    -0.344 N 
ATOM     42  H   THR B   5       4.490  91.122  64.477  1.00  0.23     0.163 HD
BRANCH  41  43
ATOM     43  CA  THR B   5       5.625  91.992  62.916  1.00  7.88     0.205 C 
BRANCH  43  44
ATOM     44  CB  THR B   5       5.335  93.480  63.117  1.00  4.05     0.146 C 
ATOM     45  CG2 THR B   5       4.483  94.078  62.018  1.00  3.72     0.042 C 
BRANCH  44  46
ATOM     46  OG1 THR B   5       4.664  93.698  64.346  1.00  7.31    -0.393 OA
ATOM     47  HG1 THR B   5       4.938  94.540  64.715  1.00  0.23     0.210 HD
ENDBRANCH  44  46
ENDBRANCH  43  44
BRANCH  43  48
ATOM     48  C   THR B   5       6.971  91.635  63.537  1.00  7.05     0.243 C 
ATOM     49  N   TRP B   6       7.132  91.953  64.816  1.00  0.00    -0.346 N 
ATOM     50  H   TRP B   6       6.398  92.391  65.297  1.00  0.23     0.163 HD
ATOM     51  O   THR B   5       7.847  91.086  62.869  1.00  6.06    -0.271 OA
BRANCH  49  52
ATOM     52  CA  TRP B   6       8.374  91.669  65.524  1.00  0.00     0.181 C 
BRANCH  52  53
ATOM     53  CB  TRP B   6       9.129  92.968  65.807  1.00  0.00     0.075 C 
BRANCH  53  54
ATOM     54  CG  TRP B   6      10.407  93.082  65.033  1.00  0.00    -0.028 A 
ATOM     55  CD2 TRP B   6      11.633  92.388  65.297  1.00  0.00    -0.002 A 
ATOM     56  CE2 TRP B   6      12.559  92.793  64.318  1.00  0.00     0.042 A 
ATOM     57  CE3 TRP B   6      12.035  91.466  66.267  1.00  0.00     0.014 A 
ATOM     58  CZ2 TRP B   6      13.863  92.305  64.282  1.00  0.00     0.030 A 
ATOM     59  NE1 TRP B   6      11.927  93.690  63.498  1.00  0.00    -0.365 N 
ATOM     60  CH2 TRP B   6      14.232  91.404  65.243  1.00  0.00     0.002 A 
ATOM     61  CZ3 TRP B   6      13.331  90.983  66.229  1.00  0.00     0.001 A 
ATOM     62  HE1 TRP B   6      12.330  94.139  62.725  1.00  0.23     0.165 HD
ATOM     63  CD1 TRP B   6      10.635  93.858  63.934  1.00  0.00     0.096 A 
ENDBRANCH  53  54
ENDBRANCH  52  53
BRANCH  52  64
ATOM     64  C   TRP B   6       8.101  90.925  66.827  1.00  0.00     0.241 C 
ATOM     65  N   VAL B   7       8.645  89.717  66.935  1.00  6.11    -0.344 N 
ATOM     66  H   VAL B   7       9.183  89.368  66.195  1.00  0.23     0.163 HD
ATOM     67  O   TRP B   6       7.410  91.433  67.711  1.00  0.00    -0.271 OA
BRANCH  65  68
ATOM     68  CA  VAL B   7       8.460  88.898  68.126  1.00  5.65     0.189 C 
BRANCH  68  69
ATOM     69  CB  VAL B   7       8.057  87.457  67.755  1.00  1.15     0.010 C 
ATOM     70  CG1 VAL B   7       6.549  87.281  67.862  1.00  4.96     0.012 C 
ATOM     71  CG2 VAL B   7       8.544  87.106  66.357  1.00  9.83     0.012 C 
ENDBRANCH  68  69
BRANCH  68  72
ATOM     72  C   VAL B   7       9.731  88.858  68.970  1.00  4.44     0.197 C 
ATOM     73  OXT VAL B   7       9.623  88.961  70.209  1.00  0.00    -0.646 OA
ATOM     74  O   VAL B   7      10.824  88.722  68.382  1.00  0.00    -0.646 OA
ENDBRANCH  68  72
ENDBRANCH  65  68
ENDBRANCH  52  64
ENDBRANCH  49  52
ENDBRANCH  43  48
ENDBRANCH  41  43
ENDBRANCH   1  39
TORSDOF 31
ENDMDL
MODEL 2
REMARK VINA RESULT:      -6.2      3.256      7.077
REMARK  31 active torsions:
REMARK  status: ('A' for Active; 'I' for Inactive)
REMARK    1  A    between atoms: N_1  and  CA_2 
REMARK    2  A    between atoms: CA_2  and  C_3 
REMARK    3  A    between atoms: CA_2  and  CB_5 
REMARK       I    between atoms: C_3  and  N_14 
REMARK    4  A    between atoms: CB_5  and  CG_6 
REMARK    5  A    between atoms: CG_6  and  CD_7 
REMARK    6  A    between atoms: CD_7  and  CE_8 
REMARK    7  A    between atoms: CE_8  and  NZ_9 
REMARK    8  A    between atoms: N_14  and  CA_15 
REMARK    9  A    between atoms: CA_15  and  C_16 
REMARK   10  A    between atoms: CA_15  and  CB_18 
REMARK       I    between atoms: C_16  and  N_22 
REMARK   11  A    between atoms: CB_18  and  SG_19 
REMARK   12  A    between atoms: N_22  and  CA_23 
REMARK   13  A    between atoms: CA_23  and  CB_26 
REMARK   14  A    between atoms: CA_23  and  C_24 
REMARK       I    between atoms: C_24  and  N_37 
REMARK   15  A    between atoms: CB_26  and  CG_27 
REMARK   16  A    between atoms: CA_31  and  N_37 
REMARK   17  A    between atoms: CA_31  and  CB_33 
REMARK   18  A    between atoms: CA_31  and  C_32 
REMARK       I    between atoms: C_32  and  N_47 
REMARK   19  A    between atoms: CB_33  and  CG_34 
REMARK   20  A    between atoms: CG_34  and  CD_35 
REMARK   21  A    between atoms: CA_41  and  N_47 
REMARK   22  A    between atoms: CA_41  and  CB_43 
REMARK   23  A    between atoms: CA_41  and  C_42 
REMARK       I    between atoms: C_42  and  N_63 
REMARK   24  A    between atoms: CB_43  and  OG1_49 
REMARK   25  A    between atoms: CA_50  and  CB_52 
REMARK   26  A    between atoms: CA_50  and  N_63 
REMARK   27  A    between atoms: CA_50  and  C_51 
REMARK       I    between atoms: C_51  and  N_72 
REMARK   28  A    between atoms: CB_52  and  CG_53 
REMARK   29  A    between atoms: CA_66  and  N_72 
REMARK   30  A    between atoms: CA_66  and  CB_68 
REMARK   31  A    between atoms: CA_66  and  C_67 
ROOT
ATOM      1  CA  GLU B   4       3.257  90.746  65.106  1.00  0.00     0.177 C 
ENDROOT
BRANCH   1   2
ATOM      2  N   GLU B   4       3.535  89.393  65.583  1.00  0.00    -0.346 N 
ATOM      3  H   GLU B   4       4.433  89.018  65.463  1.00  0.23     0.163 HD
ATOM      4  C   ASP B   3       2.594  88.652  66.163  1.00  0.00     0.241 C 
ATOM      5  O   ASP B   3       1.448  89.069  66.351  1.00  0.00    -0.271 OA
BRANCH   4   6
ATOM      6  CA  ASP B   3       2.999  87.270  66.619  1.00  0.00     0.186 C 
BRANCH   6   7
ATOM      7  CB  ASP B   3       1.837  86.258  66.422  1.00  0.00     0.147 C 
BRANCH   7   8
ATOM      8  CG  ASP B   3       1.904  85.414  65.140  1.00  0.00     0.175 C 
ATOM      9  OD2 ASP B   3       1.613  85.955  64.054  1.00  0.00    -0.648 OA
ATOM     10  OD1 ASP B   3       2.289  84.230  65.213  1.00  0.00    -0.648 OA
ENDBRANCH   7   8
ENDBRANCH   6   7
BRANCH   6  11
ATOM     11  N   ASP B   3       3.436  87.286  68.013  1.00  0.00    -0.345 N 
ATOM     12  C   CYS B   2       4.698  87.599  68.362  1.00  0.00     0.241 C 
ATOM     13  O   CYS B   2       5.552  87.903  67.534  1.00  0.00    -0.271 OA
ATOM     14  H   ASP B   3       2.791  87.064  68.714  1.00  0.00     0.163 HD
BRANCH  12  15
ATOM     15  CA  CYS B   2       4.994  87.595  69.844  1.00  0.00     0.185 C 
BRANCH  15  16
ATOM     16  N   CYS B   2       5.913  88.674  70.196  1.00  0.00    -0.345 N 
ATOM     17  H   CYS B   2       5.569  89.590  70.279  1.00  0.00     0.163 HD
ATOM     18  C   LYS B   1       7.212  88.444  70.409  1.00  0.00     0.254 C 
ATOM     19  O   LYS B   1       7.693  87.306  70.371  1.00  0.00    -0.271 OA
BRANCH  18  20
ATOM     20  CA  LYS B   1       8.057  89.650  70.748  1.00  0.00     0.350 C 
BRANCH  20  21
ATOM     21  CB  LYS B   1       8.273  90.545  69.497  1.00  0.00     0.048 C 
BRANCH  21  22
ATOM     22  CG  LYS B   1       9.643  90.322  68.809  1.00  0.00     0.004 C 
BRANCH  22  23
ATOM     23  CD  LYS B   1       9.564  89.812  67.367  1.00  0.00     0.027 C 
BRANCH  23  24
ATOM     24  CE  LYS B   1       9.174  88.328  67.376  1.00  0.00     0.229 C 
BRANCH  24  25
ATOM     25  NZ  LYS B   1      10.110  87.580  68.232  1.00  0.00    -0.079 N 
ATOM     26  HZ3 LYS B   1      10.558  88.262  68.828  1.00  0.00     0.274 HD
ATOM     27  HZ2 LYS B   1      10.805  87.074  67.673  1.00  0.00     0.274 HD
ATOM     28  HZ1 LYS B   1       9.612  86.869  68.780  1.00  0.00     0.274 HD
ENDBRANCH  24  25
ENDBRANCH  23  24
ENDBRANCH  22  23
ENDBRANCH  21  22
ENDBRANCH  20  21
BRANCH  20  29
ATOM     29  N   LYS B   1       9.353  89.246  71.286  1.00  0.00     0.312 N 
ATOM     30  H   LYS B   1       9.496  88.200  71.127  1.00  0.00     0.359 HD
ENDBRANCH  20  29
ENDBRANCH  18  20
ENDBRANCH  15  16
BRANCH  15  31
ATOM     31  CB  CYS B   2       3.720  87.738  70.699  1.00  0.00     0.105 C 
BRANCH  31  32
ATOM     32  SG  CYS B   2       3.365  89.479  71.032  1.00  0.00    -0.180 SA
ATOM     33  HG  CYS B   2       4.563  89.952  70.698  1.00  0.00     0.101 HD
ENDBRANCH  31  32
ENDBRANCH  15  31
ENDBRANCH  12  15
ENDBRANCH   6  11
ENDBRANCH   4   6
ENDBRANCH   1   2
BRANCH   1  34
ATOM     34  CB  GLU B   4       3.996  91.778  65.960  1.00  0.00     0.045 C 
BRANCH  34  35
ATOM     35  CG  GLU B   4       5.407  91.354  66.334  1.00  0.00     0.116 C 
BRANCH  35  36
ATOM     36  CD  GLU B   4       6.447  92.398  65.976  1.00  0.00     0.172 C 
ATOM     37  OE1 GLU B   4       6.202  93.181  65.035  1.00  0.00    -0.648 OA
ATOM     38  OE2 GLU B   4       7.506  92.431  66.636  1.00  0.00    -0.648 OA
ENDBRANCH  35  36
ENDBRANCH  34  35
ENDBRANCH   1  34
BRANCH   1  39
ATOM     39  C   GLU B   4       3.665  90.902  63.644  1.00  0.00     0.241 C 
ATOM     40  O   GLU B   4       3.476  89.992  62.837  1.00  0.00    -0.271 OA
ATOM     41  N   THR B   5       4.228  92.061  63.313  1.00  7.70    -0.344 N 
ATOM     42  H   THR B   5       4.351  92.744  64.005  1.00  0.23     0.163 HD
BRANCH  41  43
ATOM     43  CA  THR B   5       4.669  92.343  61.950  1.00  7.88     0.205 C 
BRANCH  43  44
ATOM     44  CB  THR B   5       4.832  93.851  61.747  1.00  4.05     0.146 C 
ATOM     45  CG2 THR B   5       4.004  94.392  60.602  1.00  3.72     0.042 C 
BRANCH  44  46
ATOM     46  OG1 THR B   5       4.459  94.557  62.917  1.00  7.31    -0.393 OA
ATOM     47  HG1 THR B   5       5.240  94.938  63.324  1.00  0.23     0.210 HD
ENDBRANCH  44  46
ENDBRANCH  43  44
BRANCH  43  48
ATOM     48  C   THR B   5       5.985  91.633  61.653  1.00  7.05     0.243 C 
ATOM     49  N   TRP B   6       6.568  91.022  62.679  1.00  0.00    -0.346 N 
ATOM     50  H   TRP B   6       6.140  91.051  63.560  1.00  0.23     0.163 HD
ATOM     51  O   THR B   5       6.463  91.641  60.519  1.00  6.06    -0.271 OA
BRANCH  49  52
ATOM     52  CA  TRP B   6       7.831  90.311  62.527  1.00  0.00     0.181 C 
BRANCH  52  53
ATOM     53  CB  TRP B   6       8.629  90.368  63.830  1.00  0.00     0.075 C 
BRANCH  53  54
ATOM     54  CG  TRP B   6       9.659  91.456  63.838  1.00  0.00    -0.028 A 
ATOM     55  CD2 TRP B   6      11.065  91.303  64.064  1.00  0.00    -0.002 A 
ATOM     56  CE2 TRP B   6      11.643  92.584  63.972  1.00  0.00     0.042 A 
ATOM     57  CE3 TRP B   6      11.890  90.209  64.335  1.00  0.00     0.014 A 
ATOM     58  CZ2 TRP B   6      13.009  92.796  64.142  1.00  0.00     0.030 A 
ATOM     59  NE1 TRP B   6      10.635  93.473  63.703  1.00  0.00    -0.365 N 
ATOM     60  CH2 TRP B   6      13.794  91.708  64.408  1.00  0.00     0.002 A 
ATOM     61  CZ3 TRP B   6      13.247  90.423  64.504  1.00  0.00     0.001 A 
ATOM     62  HE1 TRP B   6      10.744  94.440  63.586  1.00  0.23     0.165 HD
ATOM     63  CD1 TRP B   6       9.447  92.787  63.624  1.00  0.00     0.096 A 
ENDBRANCH  53  54
ENDBRANCH  52  53
BRANCH  52  64
ATOM     64  C   TRP B   6       7.595  88.861  62.117  1.00  0.00     0.241 C 
ATOM     65  N   VAL B   7       6.999  88.675  60.944  1.00  6.11    -0.344 N 
ATOM     66  H   VAL B   7       6.746  89.455  60.408  1.00  0.23     0.163 HD
ATOM     67  O   TRP B   6       7.941  87.934  62.850  1.00  0.00    -0.271 OA
BRANCH  65  68
ATOM     68  CA  VAL B   7       6.711  87.340  60.434  1.00  5.65     0.189 C 
BRANCH  68  69
ATOM     69  CB  VAL B   7       5.195  87.062  60.426  1.00  1.15     0.010 C 
ATOM     70  CG1 VAL B   7       4.725  86.620  61.805  1.00  4.96     0.012 C 
ATOM     71  CG2 VAL B   7       4.425  88.290  59.963  1.00  9.83     0.012 C 
ENDBRANCH  68  69
BRANCH  68  72
ATOM     72  C   VAL B   7       7.258  87.159  59.022  1.00  4.44     0.197 C 
ATOM     73  OXT VAL B   7       7.315  86.004  58.553  1.00  0.00    -0.646 OA
ATOM     74  O   VAL B   7       7.625  88.176  58.397  1.00  0.00    -0.646 OA
ENDBRANCH  68  72
ENDBRANCH  65  68
ENDBRANCH  52  64
ENDBRANCH  49  52
ENDBRANCH  43  48
ENDBRANCH  41  43
ENDBRANCH   1  39
TORSDOF 31
ENDMDL
MODEL 3
REMARK VINA RESULT:      -6.1      2.375      4.168
REMARK  31 active torsions:
REMARK  status: ('A' for Active; 'I' for Inactive)
REMARK    1  A    between atoms: N_1  and  CA_2 
REMARK    2  A    between atoms: CA_2  and  C_3 
REMARK    3  A    between atoms: CA_2  and  CB_5 
REMARK       I    between atoms: C_3  and  N_14 
REMARK    4  A    between atoms: CB_5  and  CG_6 
REMARK    5  A    between atoms: CG_6  and  CD_7 
REMARK    6  A    between atoms: CD_7  and  CE_8 
REMARK    7  A    between atoms: CE_8  and  NZ_9 
REMARK    8  A    between atoms: N_14  and  CA_15 
REMARK    9  A    between atoms: CA_15  and  C_16 
REMARK   10  A    between atoms: CA_15  and  CB_18 
REMARK       I    between atoms: C_16  and  N_22 
REMARK   11  A    between atoms: CB_18  and  SG_19 
REMARK   12  A    between atoms: N_22  and  CA_23 
REMARK   13  A    between atoms: CA_23  and  CB_26 
REMARK   14  A    between atoms: CA_23  and  C_24 
REMARK       I    between atoms: C_24  and  N_37 
REMARK   15  A    between atoms: CB_26  and  CG_27 
REMARK   16  A    between atoms: CA_31  and  N_37 
REMARK   17  A    between atoms: CA_31  and  CB_33 
REMARK   18  A    between atoms: CA_31  and  C_32 
REMARK       I    between atoms: C_32  and  N_47 
REMARK   19  A    between atoms: CB_33  and  CG_34 
REMARK   20  A    between atoms: CG_34  and  CD_35 
REMARK   21  A    between atoms: CA_41  and  N_47 
REMARK   22  A    between atoms: CA_41  and  CB_43 
REMARK   23  A    between atoms: CA_41  and  C_42 
REMARK       I    between atoms: C_42  and  N_63 
REMARK   24  A    between atoms: CB_43  and  OG1_49 
REMARK   25  A    between atoms: CA_50  and  CB_52 
REMARK   26  A    between atoms: CA_50  and  N_63 
REMARK   27  A    between atoms: CA_50  and  C_51 
REMARK       I    between atoms: C_51  and  N_72 
REMARK   28  A    between atoms: CB_52  and  CG_53 
REMARK   29  A    between atoms: CA_66  and  N_72 
REMARK   30  A    between atoms: CA_66  and  CB_68 
REMARK   31  A    between atoms: CA_66  and  C_67 
ROOT
ATOM      1  CA  GLU B   4       4.782  90.254  61.586  1.00  0.00     0.177 C 
ENDROOT
BRANCH   1   2
ATOM      2  N   GLU B   4       3.743  89.431  62.200  1.00  0.00    -0.346 N 
ATOM      3  H   GLU B   4       3.566  88.537  61.840  1.00  0.23     0.163 HD
ATOM      4  C   ASP B   3       3.023  89.871  63.229  1.00  0.00     0.241 C 
ATOM      5  O   ASP B   3       3.204  90.982  63.734  1.00  0.00    -0.271 OA
BRANCH   4   6
ATOM      6  CA  ASP B   3       1.981  88.930  63.785  1.00  0.00     0.186 C 
BRANCH   6   7
ATOM      7  CB  ASP B   3       1.920  89.021  65.335  1.00  0.00     0.147 C 
BRANCH   7   8
ATOM      8  CG  ASP B   3       2.905  88.117  66.090  1.00  0.00     0.175 C 
ATOM      9  OD2 ASP B   3       2.572  86.938  66.327  1.00  0.00    -0.648 OA
ATOM     10  OD1 ASP B   3       4.024  88.570  66.407  1.00  0.00    -0.648 OA
ENDBRANCH   7   8
ENDBRANCH   6   7
BRANCH   6  11
ATOM     11  N   ASP B   3       2.237  87.556  63.362  1.00  0.00    -0.345 N 
ATOM     12  C   CYS B   2       1.722  87.051  62.224  1.00  0.00     0.241 C 
ATOM     13  O   CYS B   2       1.020  87.717  61.469  1.00  0.00    -0.271 OA
ATOM     14  H   ASP B   3       2.801  86.985  63.921  1.00  0.00     0.163 HD
BRANCH  12  15
ATOM     15  CA  CYS B   2       2.095  85.621  61.908  1.00  0.00     0.185 C 
BRANCH  15  16
ATOM     16  N   CYS B   2       3.000  85.558  60.763  1.00  0.00    -0.345 N 
ATOM     17  H   CYS B   2       2.684  85.159  59.922  1.00  0.00     0.163 HD
ATOM     18  C   LYS B   1       4.248  86.029  60.833  1.00  0.00     0.254 C 
ATOM     19  O   LYS B   1       4.684  86.587  61.846  1.00  0.00    -0.271 OA
BRANCH  18  20
ATOM     20  CA  LYS B   1       5.087  85.886  59.584  1.00  0.00     0.350 C 
BRANCH  20  21
ATOM     21  CB  LYS B   1       6.557  86.310  59.852  1.00  0.00     0.048 C 
BRANCH  21  22
ATOM     22  CG  LYS B   1       6.900  87.719  59.306  1.00  0.00     0.004 C 
BRANCH  22  23
ATOM     23  CD  LYS B   1       7.793  88.563  60.219  1.00  0.00     0.027 C 
BRANCH  23  24
ATOM     24  CE  LYS B   1       7.841  87.923  61.613  1.00  0.00     0.229 C 
BRANCH  24  25
ATOM     25  NZ  LYS B   1       8.656  88.762  62.509  1.00  0.00    -0.079 N 
ATOM     26  HZ3 LYS B   1       9.259  88.131  63.018  1.00  0.00     0.274 HD
ATOM     27  HZ2 LYS B   1       8.068  89.302  63.152  1.00  0.00     0.274 HD
ATOM     28  HZ1 LYS B   1       9.197  89.448  61.971  1.00  0.00     0.274 HD
ENDBRANCH  24  25
ENDBRANCH  23  24
ENDBRANCH  22  23
ENDBRANCH  21  22
ENDBRANCH  20  21
BRANCH  20  29
ATOM     29  N   LYS B   1       4.540  86.686  58.492  1.00  0.00     0.312 N 
ATOM     30  H   LYS B   1       4.547  86.113  57.592  1.00  0.00     0.359 HD
ENDBRANCH  20  29
ENDBRANCH  18  20
ENDBRANCH  15  16
BRANCH  15  31
ATOM     31  CB  CYS B   2       2.762  84.909  63.100  1.00  0.00     0.105 C 
BRANCH  31  32
ATOM     32  SG  CYS B   2       1.578  83.844  63.955  1.00  0.00    -0.180 SA
ATOM     33  HG  CYS B   2       1.099  83.237  62.872  1.00  0.00     0.101 HD
ENDBRANCH  31  32
ENDBRANCH  15  31
ENDBRANCH  12  15
ENDBRANCH   6  11
ENDBRANCH   4   6
ENDBRANCH   1   2
BRANCH   1  34
ATOM     34  CB  GLU B   4       4.160  91.297  60.655  1.00  0.00     0.045 C 
BRANCH  34  35
ATOM     35  CG  GLU B   4       4.683  91.223  59.230  1.00  0.00     0.116 C 
BRANCH  35  36
ATOM     36  CD  GLU B   4       4.128  90.039  58.462  1.00  0.00     0.172 C 
ATOM     37  OE1 GLU B   4       4.652  89.743  57.369  1.00  0.00    -0.648 OA
ATOM     38  OE2 GLU B   4       3.170  89.408  58.956  1.00  0.00    -0.648 OA
ENDBRANCH  35  36
ENDBRANCH  34  35
ENDBRANCH   1  34
BRANCH   1  39
ATOM     39  C   GLU B   4       5.623  90.952  62.651  1.00  0.00     0.241 C 
ATOM     40  O   GLU B   4       6.283  90.299  63.461  1.00  0.00    -0.271 OA
ATOM     41  N   THR B   5       5.591  92.281  62.646  1.00  7.70    -0.344 N 
ATOM     42  H   THR B   5       5.043  92.741  61.974  1.00  0.23     0.163 HD
BRANCH  41  43
ATOM     43  CA  THR B   5       6.345  93.076  63.611  1.00  7.88     0.205 C 
BRANCH  43  44
ATOM     44  CB  THR B   5       5.901  92.741  65.036  1.00  4.05     0.146 C 
ATOM     45  CG2 THR B   5       6.769  93.380  66.098  1.00  3.72     0.042 C 
BRANCH  44  46
ATOM     46  OG1 THR B   5       4.569  93.166  65.258  1.00  7.31    -0.393 OA
ATOM     47  HG1 THR B   5       3.974  92.660  64.700  1.00  0.23     0.210 HD
ENDBRANCH  44  46
ENDBRANCH  43  44
BRANCH  43  48
ATOM     48  C   THR B   5       7.842  92.826  63.459  1.00  7.05     0.243 C 
ATOM     49  N   TRP B   6       8.418  92.108  64.417  1.00  0.00    -0.346 N 
ATOM     50  H   TRP B   6       7.873  91.777  65.161  1.00  0.23     0.163 HD
ATOM     51  O   THR B   5       8.462  93.277  62.496  1.00  6.06    -0.271 OA
BRANCH  49  52
ATOM     52  CA  TRP B   6       9.843  91.804  64.391  1.00  0.00     0.181 C 
BRANCH  52  53
ATOM     53  CB  TRP B   6      10.629  92.888  65.130  1.00  0.00     0.075 C 
BRANCH  53  54
ATOM     54  CG  TRP B   6      11.585  93.625  64.243  1.00  0.00    -0.028 A 
ATOM     55  CD2 TRP B   6      12.888  93.188  63.839  1.00  0.00    -0.002 A 
ATOM     56  CE2 TRP B   6      13.423  94.188  63.005  1.00  0.00     0.042 A 
ATOM     57  CE3 TRP B   6      13.654  92.049  64.102  1.00  0.00     0.014 A 
ATOM     58  CZ2 TRP B   6      14.687  94.082  62.433  1.00  0.00     0.030 A 
ATOM     59  NE1 TRP B   6      12.488  95.186  62.907  1.00  0.00    -0.365 N 
ATOM     60  CH2 TRP B   6      15.417  92.957  62.707  1.00  0.00     0.002 A 
ATOM     61  CZ3 TRP B   6      14.911  91.946  63.533  1.00  0.00     0.001 A 
ATOM     62  HE1 TRP B   6      12.587  96.012  62.388  1.00  0.23     0.165 HD
ATOM     63  CD1 TRP B   6      11.387  94.839  63.653  1.00  0.00     0.096 A 
ENDBRANCH  53  54
ENDBRANCH  52  53
BRANCH  52  64
ATOM     64  C   TRP B   6      10.121  90.438  65.011  1.00  0.00     0.241 C 
ATOM     65  N   VAL B   7       9.358  90.101  66.046  1.00  6.11    -0.344 N 
ATOM     66  H   VAL B   7       8.671  90.726  66.356  1.00  0.23     0.163 HD
ATOM     67  O   TRP B   6      11.007  89.710  64.563  1.00  0.00    -0.271 OA
BRANCH  65  68
ATOM     68  CA  VAL B   7       9.520  88.826  66.733  1.00  5.65     0.189 C 
BRANCH  68  69
ATOM     69  CB  VAL B   7       9.220  88.962  68.239  1.00  1.15     0.010 C 
ATOM     70  CG1 VAL B   7      10.225  88.165  69.058  1.00  4.96     0.012 C 
ATOM     71  CG2 VAL B   7       9.221  90.424  68.658  1.00  9.83     0.012 C 
ENDBRANCH  68  69
BRANCH  68  72
ATOM     72  C   VAL B   7       8.607  87.758  66.137  1.00  4.44     0.197 C 
ATOM     73  OXT VAL B   7       8.886  86.560  66.341  1.00  0.00    -0.646 OA
ATOM     74  O   VAL B   7       7.620  88.134  65.471  1.00  0.00    -0.646 OA
ENDBRANCH  68  72
ENDBRANCH  65  68
ENDBRANCH  52  64
ENDBRANCH  49  52
ENDBRANCH  43  48
ENDBRANCH  41  43
ENDBRANCH   1  39
TORSDOF 31
ENDMDL
MODEL 4
REMARK VINA RESULT:      -5.7      2.222      4.421
REMARK  31 active torsions:
REMARK  status: ('A' for Active; 'I' for Inactive)
REMARK    1  A    between atoms: N_1  and  CA_2 
REMARK    2  A    between atoms: CA_2  and  C_3 
REMARK    3  A    between atoms: CA_2  and  CB_5 
REMARK       I    between atoms: C_3  and  N_14 
REMARK    4  A    between atoms: CB_5  and  CG_6 
REMARK    5  A    between atoms: CG_6  and  CD_7 
REMARK    6  A    between atoms: CD_7  and  CE_8 
REMARK    7  A    between atoms: CE_8  and  NZ_9 
REMARK    8  A    between atoms: N_14  and  CA_15 
REMARK    9  A    between atoms: CA_15  and  C_16 
REMARK   10  A    between atoms: CA_15  and  CB_18 
REMARK       I    between atoms: C_16  and  N_22 
REMARK   11  A    between atoms: CB_18  and  SG_19 
REMARK   12  A    between atoms: N_22  and  CA_23 
REMARK   13  A    between atoms: CA_23  and  CB_26 
REMARK   14  A    between atoms: CA_23  and  C_24 
REMARK       I    between atoms: C_24  and  N_37 
REMARK   15  A    between atoms: CB_26  and  CG_27 
REMARK   16  A    between atoms: CA_31  and  N_37 
REMARK   17  A    between atoms: CA_31  and  CB_33 
REMARK   18  A    between atoms: CA_31  and  C_32 
REMARK       I    between atoms: C_32  and  N_47 
REMARK   19  A    between atoms: CB_33  and  CG_34 
REMARK   20  A    between atoms: CG_34  and  CD_35 
REMARK   21  A    between atoms: CA_41  and  N_47 
REMARK   22  A    between atoms: CA_41  and  CB_43 
REMARK   23  A    between atoms: CA_41  and  C_42 
REMARK       I    between atoms: C_42  and  N_63 
REMARK   24  A    between atoms: CB_43  and  OG1_49 
REMARK   25  A    between atoms: CA_50  and  CB_52 
REMARK   26  A    between atoms: CA_50  and  N_63 
REMARK   27  A    between atoms: CA_50  and  C_51 
REMARK       I    between atoms: C_51  and  N_72 
REMARK   28  A    between atoms: CB_52  and  CG_53 
REMARK   29  A    between atoms: CA_66  and  N_72 
REMARK   30  A    between atoms: CA_66  and  CB_68 
REMARK   31  A    between atoms: CA_66  and  C_67 
ROOT
ATOM      1  CA  GLU B   4       5.819  89.857  62.341  1.00  0.00     0.177 C 
ENDROOT
BRANCH   1   2
ATOM      2  N   GLU B   4       4.809  89.091  63.069  1.00  0.00    -0.346 N 
ATOM      3  H   GLU B   4       4.830  88.112  63.029  1.00  0.23     0.163 HD
ATOM      4  C   ASP B   3       3.854  89.691  63.774  1.00  0.00     0.241 C 
ATOM      5  O   ASP B   3       3.778  90.919  63.872  1.00  0.00    -0.271 OA
BRANCH   4   6
ATOM      6  CA  ASP B   3       2.869  88.797  64.489  1.00  0.00     0.186 C 
BRANCH   6   7
ATOM      7  CB  ASP B   3       3.285  88.588  65.972  1.00  0.00     0.147 C 
BRANCH   7   8
ATOM      8  CG  ASP B   3       3.236  89.844  66.856  1.00  0.00     0.175 C 
ATOM      9  OD2 ASP B   3       2.122  90.316  67.162  1.00  0.00    -0.648 OA
ATOM     10  OD1 ASP B   3       4.304  90.330  67.279  1.00  0.00    -0.648 OA
ENDBRANCH   7   8
ENDBRANCH   6   7
BRANCH   6  11
ATOM     11  N   ASP B   3       2.738  87.513  63.807  1.00  0.00    -0.345 N 
ATOM     12  C   CYS B   2       1.587  87.130  63.220  1.00  0.00     0.241 C 
ATOM     13  O   CYS B   2       0.587  87.842  63.210  1.00  0.00    -0.271 OA
ATOM     14  H   ASP B   3       3.509  86.912  63.775  1.00  0.00     0.163 HD
BRANCH  12  15
ATOM     15  CA  CYS B   2       1.611  85.784  62.534  1.00  0.00     0.185 C 
BRANCH  15  16
ATOM     16  N   CYS B   2       2.826  85.623  61.740  1.00  0.00    -0.345 N 
ATOM     17  H   CYS B   2       3.608  85.183  62.143  1.00  0.00     0.163 HD
ATOM     18  C   LYS B   1       2.901  86.060  60.480  1.00  0.00     0.254 C 
ATOM     19  O   LYS B   1       1.936  86.573  59.904  1.00  0.00    -0.271 OA
BRANCH  18  20
ATOM     20  CA  LYS B   1       4.222  85.849  59.777  1.00  0.00     0.350 C 
BRANCH  20  21
ATOM     21  CB  LYS B   1       5.395  86.432  60.611  1.00  0.00     0.048 C 
BRANCH  21  22
ATOM     22  CG  LYS B   1       6.784  86.199  59.968  1.00  0.00     0.004 C 
BRANCH  22  23
ATOM     23  CD  LYS B   1       7.056  84.757  59.528  1.00  0.00     0.027 C 
BRANCH  23  24
ATOM     24  CE  LYS B   1       7.404  84.742  58.033  1.00  0.00     0.229 C 
BRANCH  24  25
ATOM     25  NZ  LYS B   1       8.182  83.529  57.724  1.00  0.00    -0.079 N 
ATOM     26  HZ3 LYS B   1       8.705  83.734  56.885  1.00  0.00     0.274 HD
ATOM     27  HZ2 LYS B   1       7.570  82.719  57.584  1.00  0.00     0.274 HD
ATOM     28  HZ1 LYS B   1       8.802  83.287  58.506  1.00  0.00     0.274 HD
ENDBRANCH  24  25
ENDBRANCH  23  24
ENDBRANCH  22  23
ENDBRANCH  21  22
ENDBRANCH  20  21
BRANCH  20  29
ATOM     29  N   LYS B   1       4.214  86.464  58.453  1.00  0.00     0.312 N 
ATOM     30  H   LYS B   1       3.302  87.001  58.313  1.00  0.00     0.359 HD
ENDBRANCH  20  29
ENDBRANCH  18  20
ENDBRANCH  15  16
BRANCH  15  31
ATOM     31  CB  CYS B   2       1.519  84.613  63.531  1.00  0.00     0.105 C 
BRANCH  31  32
ATOM     32  SG  CYS B   2      -0.062  84.641  64.407  1.00  0.00    -0.180 SA
ATOM     33  HG  CYS B   2      -0.377  85.903  64.126  1.00  0.00     0.101 HD
ENDBRANCH  31  32
ENDBRANCH  15  31
ENDBRANCH  12  15
ENDBRANCH   6  11
ENDBRANCH   4   6
ENDBRANCH   1   2
BRANCH   1  34
ATOM     34  CB  GLU B   4       5.154  90.838  61.374  1.00  0.00     0.045 C 
BRANCH  34  35
ATOM     35  CG  GLU B   4       5.757  90.815  59.980  1.00  0.00     0.116 C 
BRANCH  35  36
ATOM     36  CD  GLU B   4       5.171  89.723  59.105  1.00  0.00     0.172 C 
ATOM     37  OE1 GLU B   4       5.917  89.166  58.273  1.00  0.00    -0.648 OA
ATOM     38  OE2 GLU B   4       3.967  89.426  59.254  1.00  0.00    -0.648 OA
ENDBRANCH  35  36
ENDBRANCH  34  35
ENDBRANCH   1  34
BRANCH   1  39
ATOM     39  C   GLU B   4       6.724  90.618  63.305  1.00  0.00     0.241 C 
ATOM     40  O   GLU B   4       7.534  90.020  64.013  1.00  0.00    -0.271 OA
ATOM     41  N   THR B   5       6.575  91.939  63.329  1.00  7.70    -0.344 N 
ATOM     42  H   THR B   5       5.910  92.353  62.740  1.00  0.23     0.163 HD
BRANCH  41  43
ATOM     43  CA  THR B   5       7.373  92.790  64.207  1.00  7.88     0.205 C 
BRANCH  43  44
ATOM     44  CB  THR B   5       6.790  92.788  65.621  1.00  4.05     0.146 C 
ATOM     45  CG2 THR B   5       5.377  93.324  65.686  1.00  3.72     0.042 C 
BRANCH  44  46
ATOM     46  OG1 THR B   5       6.776  91.475  66.155  1.00  7.31    -0.393 OA
ATOM     47  HG1 THR B   5       5.917  91.076  66.000  1.00  0.23     0.210 HD
ENDBRANCH  44  46
ENDBRANCH  43  44
BRANCH  43  48
ATOM     48  C   THR B   5       8.823  92.317  64.241  1.00  7.05     0.243 C 
ATOM     49  N   TRP B   6       9.279  91.901  65.417  1.00  0.00    -0.346 N 
ATOM     50  H   TRP B   6       8.681  91.914  66.194  1.00  0.23     0.163 HD
ATOM     51  O   THR B   5       9.514  92.333  63.223  1.00  6.06    -0.271 OA
BRANCH  49  52
ATOM     52  CA  TRP B   6      10.647  91.429  65.582  1.00  0.00     0.181 C 
BRANCH  52  53
ATOM     53  CB  TRP B   6      11.566  92.594  65.954  1.00  0.00     0.075 C 
BRANCH  53  54
ATOM     54  CG  TRP B   6      12.762  92.703  65.058  1.00  0.00    -0.028 A 
ATOM     55  CD2 TRP B   6      12.993  93.700  64.055  1.00  0.00    -0.002 A 
ATOM     56  CE2 TRP B   6      14.240  93.419  63.468  1.00  0.00     0.042 A 
ATOM     57  CE3 TRP B   6      12.264  94.801  63.597  1.00  0.00     0.014 A 
ATOM     58  CZ2 TRP B   6      14.775  94.201  62.447  1.00  0.00     0.030 A 
ATOM     59  NE1 TRP B   6      14.745  92.304  64.085  1.00  0.00    -0.365 N 
ATOM     60  CH2 TRP B   6      14.041  95.273  62.017  1.00  0.00     0.002 A 
ATOM     61  CZ3 TRP B   6      12.797  95.576  62.583  1.00  0.00     0.001 A 
ATOM     62  HE1 TRP B   6      15.603  91.877  63.879  1.00  0.23     0.165 HD
ATOM     63  CD1 TRP B   6      13.851  91.880  65.038  1.00  0.00     0.096 A 
ENDBRANCH  53  54
ENDBRANCH  52  53
BRANCH  52  64
ATOM     64  C   TRP B   6      10.723  90.339  66.646  1.00  0.00     0.241 C 
ATOM     65  N   VAL B   7       9.562  89.826  67.041  1.00  6.11    -0.344 N 
ATOM     66  H   VAL B   7       8.733  90.159  66.642  1.00  0.23     0.163 HD
ATOM     67  O   TRP B   6      11.809  89.975  67.101  1.00  0.00    -0.271 OA
BRANCH  65  68
ATOM     68  CA  VAL B   7       9.492  88.780  68.054  1.00  5.65     0.189 C 
BRANCH  68  69
ATOM     69  CB  VAL B   7       8.591  89.203  69.230  1.00  1.15     0.010 C 
ATOM     70  CG1 VAL B   7       9.333  89.055  70.551  1.00  4.96     0.012 C 
ATOM     71  CG2 VAL B   7       8.099  90.630  69.044  1.00  9.83     0.012 C 
ENDBRANCH  68  69
BRANCH  68  72
ATOM     72  C   VAL B   7       8.963  87.476  67.463  1.00  4.44     0.197 C 
ATOM     73  OXT VAL B   7       8.212  87.538  66.469  1.00  0.00    -0.646 OA
ATOM     74  O   VAL B   7       9.306  86.403  68.002  1.00  0.00    -0.646 OA
ENDBRANCH  68  72
ENDBRANCH  65  68
ENDBRANCH  52  64
ENDBRANCH  49  52
ENDBRANCH  43  48
ENDBRANCH  41  43
ENDBRANCH   1  39
TORSDOF 31
ENDMDL
MODEL 5
REMARK VINA RESULT:      -5.4      2.787      6.753
REMARK  31 active torsions:
REMARK  status: ('A' for Active; 'I' for Inactive)
REMARK    1  A    between atoms: N_1  and  CA_2 
REMARK    2  A    between atoms: CA_2  and  C_3 
REMARK    3  A    between atoms: CA_2  and  CB_5 
REMARK       I    between atoms: C_3  and  N_14 
REMARK    4  A    between atoms: CB_5  and  CG_6 
REMARK    5  A    between atoms: CG_6  and  CD_7 
REMARK    6  A    between atoms: CD_7  and  CE_8 
REMARK    7  A    between atoms: CE_8  and  NZ_9 
REMARK    8  A    between atoms: N_14  and  CA_15 
REMARK    9  A    between atoms: CA_15  and  C_16 
REMARK   10  A    between atoms: CA_15  and  CB_18 
REMARK       I    between atoms: C_16  and  N_22 
REMARK   11  A    between atoms: CB_18  and  SG_19 
REMARK   12  A    between atoms: N_22  and  CA_23 
REMARK   13  A    between atoms: CA_23  and  CB_26 
REMARK   14  A    between atoms: CA_23  and  C_24 
REMARK       I    between atoms: C_24  and  N_37 
REMARK   15  A    between atoms: CB_26  and  CG_27 
REMARK   16  A    between atoms: CA_31  and  N_37 
REMARK   17  A    between atoms: CA_31  and  CB_33 
REMARK   18  A    between atoms: CA_31  and  C_32 
REMARK       I    between atoms: C_32  and  N_47 
REMARK   19  A    between atoms: CB_33  and  CG_34 
REMARK   20  A    between atoms: CG_34  and  CD_35 
REMARK   21  A    between atoms: CA_41  and  N_47 
REMARK   22  A    between atoms: CA_41  and  CB_43 
REMARK   23  A    between atoms: CA_41  and  C_42 
REMARK       I    between atoms: C_42  and  N_63 
REMARK   24  A    between atoms: CB_43  and  OG1_49 
REMARK   25  A    between atoms: CA_50  and  CB_52 
REMARK   26  A    between atoms: CA_50  and  N_63 
REMARK   27  A    between atoms: CA_50  and  C_51 
REMARK       I    between atoms: C_51  and  N_72 
REMARK   28  A    between atoms: CB_52  and  CG_53 
REMARK   29  A    between atoms: CA_66  and  N_72 
REMARK   30  A    between atoms: CA_66  and  CB_68 
REMARK   31  A    between atoms: CA_66  and  C_67 
ROOT
ATOM      1  CA  GLU B   4       7.110  88.137  61.421  1.00  0.00     0.177 C 
ENDROOT
BRANCH   1   2
ATOM      2  N   GLU B   4       5.715  87.709  61.344  1.00  0.00    -0.346 N 
ATOM      3  H   GLU B   4       5.006  88.346  61.569  1.00  0.23     0.163 HD
ATOM      4  C   ASP B   3       5.385  86.470  60.986  1.00  0.00     0.241 C 
ATOM      5  O   ASP B   3       6.230  85.624  60.682  1.00  0.00    -0.271 OA
BRANCH   4   6
ATOM      6  CA  ASP B   3       3.912  86.144  60.937  1.00  0.00     0.186 C 
BRANCH   6   7
ATOM      7  CB  ASP B   3       3.138  87.200  60.100  1.00  0.00     0.147 C 
BRANCH   7   8
ATOM      8  CG  ASP B   3       1.770  87.617  60.662  1.00  0.00     0.175 C 
ATOM      9  OD2 ASP B   3       1.699  88.656  61.350  1.00  0.00    -0.648 OA
ATOM     10  OD1 ASP B   3       0.764  86.934  60.381  1.00  0.00    -0.648 OA
ENDBRANCH   7   8
ENDBRANCH   6   7
BRANCH   6  11
ATOM     11  N   ASP B   3       3.352  86.044  62.281  1.00  0.00    -0.345 N 
ATOM     12  C   CYS B   2       2.621  84.983  62.674  1.00  0.00     0.241 C 
ATOM     13  O   CYS B   2       2.395  84.031  61.932  1.00  0.00    -0.271 OA
ATOM     14  H   ASP B   3       3.513  86.770  62.917  1.00  0.00     0.163 HD
BRANCH  12  15
ATOM     15  CA  CYS B   2       2.128  85.011  64.102  1.00  0.00     0.185 C 
BRANCH  15  16
ATOM     16  N   CYS B   2       1.247  86.153  64.328  1.00  0.00    -0.345 N 
ATOM     17  H   CYS B   2       0.421  86.234  63.801  1.00  0.00     0.163 HD
ATOM     18  C   LYS B   1       1.536  87.091  65.234  1.00  0.00     0.254 C 
ATOM     19  O   LYS B   1       2.532  87.016  65.962  1.00  0.00    -0.271 OA
BRANCH  18  20
ATOM     20  CA  LYS B   1       0.551  88.230  65.356  1.00  0.00     0.350 C 
BRANCH  20  21
ATOM     21  CB  LYS B   1       1.239  89.593  65.072  1.00  0.00     0.048 C 
BRANCH  21  22
ATOM     22  CG  LYS B   1       0.667  90.759  65.917  1.00  0.00     0.004 C 
BRANCH  22  23
ATOM     23  CD  LYS B   1       1.715  91.581  66.673  1.00  0.00     0.027 C 
BRANCH  23  24
ATOM     24  CE  LYS B   1       1.069  92.202  67.918  1.00  0.00     0.229 C 
BRANCH  24  25
ATOM     25  NZ  LYS B   1       0.336  91.162  68.660  1.00  0.00    -0.079 N 
ATOM     26  HZ3 LYS B   1      -0.431  91.629  69.123  1.00  0.00     0.274 HD
ATOM     27  HZ2 LYS B   1       0.941  90.692  69.342  1.00  0.00     0.274 HD
ATOM     28  HZ1 LYS B   1       0.002  90.429  68.023  1.00  0.00     0.274 HD
ENDBRANCH  24  25
ENDBRANCH  23  24
ENDBRANCH  22  23
ENDBRANCH  21  22
ENDBRANCH  20  21
BRANCH  20  29
ATOM     29  N   LYS B   1      -0.055  88.258  66.684  1.00  0.00     0.312 N 
ATOM     30  H   LYS B   1       0.199  89.172  67.174  1.00  0.00     0.359 HD
ENDBRANCH  20  29
ENDBRANCH  18  20
ENDBRANCH  15  16
BRANCH  15  31
ATOM     31  CB  CYS B   2       1.373  83.725  64.490  1.00  0.00     0.105 C 
BRANCH  31  32
ATOM     32  SG  CYS B   2       2.532  82.409  64.926  1.00  0.00    -0.180 SA
ATOM     33  HG  CYS B   2       1.626  81.539  65.366  1.00  0.00     0.101 HD
ENDBRANCH  31  32
ENDBRANCH  15  31
ENDBRANCH  12  15
ENDBRANCH   6  11
ENDBRANCH   4   6
ENDBRANCH   1   2
BRANCH   1  34
ATOM     34  CB  GLU B   4       7.412  89.181  60.345  1.00  0.00     0.045 C 
BRANCH  34  35
ATOM     35  CG  GLU B   4       6.457  89.125  59.164  1.00  0.00     0.116 C 
BRANCH  35  36
ATOM     36  CD  GLU B   4       7.030  88.366  57.982  1.00  0.00     0.172 C 
ATOM     37  OE1 GLU B   4       7.048  87.119  58.031  1.00  0.00    -0.648 OA
ATOM     38  OE2 GLU B   4       7.461  89.020  57.010  1.00  0.00    -0.648 OA
ENDBRANCH  35  36
ENDBRANCH  34  35
ENDBRANCH   1  34
BRANCH   1  39
ATOM     39  C   GLU B   4       7.427  88.711  62.799  1.00  0.00     0.241 C 
ATOM     40  O   GLU B   4       8.100  89.735  62.915  1.00  0.00    -0.271 OA
ATOM     41  N   THR B   5       6.940  88.040  63.839  1.00  7.70    -0.344 N 
ATOM     42  H   THR B   5       6.413  87.230  63.677  1.00  0.23     0.163 HD
BRANCH  41  43
ATOM     43  CA  THR B   5       7.169  88.475  65.214  1.00  7.88     0.205 C 
BRANCH  43  44
ATOM     44  CB  THR B   5       8.668  88.492  65.522  1.00  4.05     0.146 C 
ATOM     45  CG2 THR B   5       8.979  88.275  66.987  1.00  3.72     0.042 C 
BRANCH  44  46
ATOM     46  OG1 THR B   5       9.341  87.486  64.787  1.00  7.31    -0.393 OA
ATOM     47  HG1 THR B   5       9.776  87.881  64.028  1.00  0.23     0.210 HD
ENDBRANCH  44  46
ENDBRANCH  43  44
BRANCH  43  48
ATOM     48  C   THR B   5       6.575  89.860  65.446  1.00  7.05     0.243 C 
ATOM     49  N   TRP B   6       7.423  90.881  65.392  1.00  0.00    -0.346 N 
ATOM     50  H   TRP B   6       8.370  90.707  65.209  1.00  0.23     0.163 HD
ATOM     51  O   THR B   5       5.373  89.999  65.672  1.00  6.06    -0.271 OA
BRANCH  49  52
ATOM     52  CA  TRP B   6       6.980  92.253  65.600  1.00  0.00     0.181 C 
BRANCH  52  53
ATOM     53  CB  TRP B   6       8.183  93.197  65.636  1.00  0.00     0.075 C 
BRANCH  53  54
ATOM     54  CG  TRP B   6       9.391  92.629  64.957  1.00  0.00    -0.028 A 
ATOM     55  CD2 TRP B   6      10.426  91.845  65.563  1.00  0.00    -0.002 A 
ATOM     56  CE2 TRP B   6      11.351  91.524  64.552  1.00  0.00     0.042 A 
ATOM     57  CE3 TRP B   6      10.659  91.385  66.861  1.00  0.00     0.014 A 
ATOM     58  CZ2 TRP B   6      12.490  90.763  64.801  1.00  0.00     0.030 A 
ATOM     59  NE1 TRP B   6      10.900  92.087  63.386  1.00  0.00    -0.365 N 
ATOM     60  CH2 TRP B   6      12.695  90.325  66.081  1.00  0.00     0.002 A 
ATOM     61  CZ3 TRP B   6      11.791  90.629  67.106  1.00  0.00     0.001 A 
ATOM     62  HE1 TRP B   6      11.345  92.027  62.514  1.00  0.23     0.165 HD
ATOM     63  CD1 TRP B   6       9.723  92.748  63.638  1.00  0.00     0.096 A 
ENDBRANCH  53  54
ENDBRANCH  52  53
BRANCH  52  64
ATOM     64  C   TRP B   6       6.006  92.684  64.508  1.00  0.00     0.241 C 
ATOM     65  N   VAL B   7       6.100  92.033  63.352  1.00  6.11    -0.344 N 
ATOM     66  H   VAL B   7       6.769  91.325  63.256  1.00  0.23     0.163 HD
ATOM     67  O   TRP B   6       5.193  93.587  64.707  1.00  0.00    -0.271 OA
BRANCH  65  68
ATOM     68  CA  VAL B   7       5.232  92.347  62.224  1.00  5.65     0.189 C 
BRANCH  68  69
ATOM     69  CB  VAL B   7       6.034  92.952  61.055  1.00  1.15     0.010 C 
ATOM     70  CG1 VAL B   7       5.304  94.153  60.471  1.00  4.96     0.012 C 
ATOM     71  CG2 VAL B   7       7.434  93.339  61.508  1.00  9.83     0.012 C 
ENDBRANCH  68  69
BRANCH  68  72
ATOM     72  C   VAL B   7       4.494  91.105  61.733  1.00  4.44     0.197 C 
ATOM     73  OXT VAL B   7       4.305  90.172  62.540  1.00  0.00    -0.646 OA
ATOM     74  O   VAL B   7       4.112  91.078  60.545  1.00  0.00    -0.646 OA
ENDBRANCH  68  72
ENDBRANCH  65  68
ENDBRANCH  52  64
ENDBRANCH  49  52
ENDBRANCH  43  48
ENDBRANCH  41  43
ENDBRANCH   1  39
TORSDOF 31
ENDMDL
MODEL 6
REMARK VINA RESULT:      -4.7      2.863      6.872
REMARK  31 active torsions:
REMARK  status: ('A' for Active; 'I' for Inactive)
REMARK    1  A    between atoms: N_1  and  CA_2 
REMARK    2  A    between atoms: CA_2  and  C_3 
REMARK    3  A    between atoms: CA_2  and  CB_5 
REMARK       I    between atoms: C_3  and  N_14 
REMARK    4  A    between atoms: CB_5  and  CG_6 
REMARK    5  A    between atoms: CG_6  and  CD_7 
REMARK    6  A    between atoms: CD_7  and  CE_8 
REMARK    7  A    between atoms: CE_8  and  NZ_9 
REMARK    8  A    between atoms: N_14  and  CA_15 
REMARK    9  A    between atoms: CA_15  and  C_16 
REMARK   10  A    between atoms: CA_15  and  CB_18 
REMARK       I    between atoms: C_16  and  N_22 
REMARK   11  A    between atoms: CB_18  and  SG_19 
REMARK   12  A    between atoms: N_22  and  CA_23 
REMARK   13  A    between atoms: CA_23  and  CB_26 
REMARK   14  A    between atoms: CA_23  and  C_24 
REMARK       I    between atoms: C_24  and  N_37 
REMARK   15  A    between atoms: CB_26  and  CG_27 
REMARK   16  A    between atoms: CA_31  and  N_37 
REMARK   17  A    between atoms: CA_31  and  CB_33 
REMARK   18  A    between atoms: CA_31  and  C_32 
REMARK       I    between atoms: C_32  and  N_47 
REMARK   19  A    between atoms: CB_33  and  CG_34 
REMARK   20  A    between atoms: CG_34  and  CD_35 
REMARK   21  A    between atoms: CA_41  and  N_47 
REMARK   22  A    between atoms: CA_41  and  CB_43 
REMARK   23  A    between atoms: CA_41  and  C_42 
REMARK       I    between atoms: C_42  and  N_63 
REMARK   24  A    between atoms: CB_43  and  OG1_49 
REMARK   25  A    between atoms: CA_50  and  CB_52 
REMARK   26  A    between atoms: CA_50  and  N_63 
REMARK   27  A    between atoms: CA_50  and  C_51 
REMARK       I    between atoms: C_51  and  N_72 
REMARK   28  A    between atoms: CB_52  and  CG_53 
REMARK   29  A    between atoms: CA_66  and  N_72 
REMARK   30  A    between atoms: CA_66  and  CB_68 
REMARK   31  A    between atoms: CA_66  and  C_67 
ROOT
ATOM      1  CA  GLU B   4       7.184  87.999  62.233  1.00  0.00     0.177 C 
ENDROOT
BRANCH   1   2
ATOM      2  N   GLU B   4       5.723  88.022  62.264  1.00  0.00    -0.346 N 
ATOM      3  H   GLU B   4       5.266  88.739  62.750  1.00  0.23     0.163 HD
ATOM      4  C   ASP B   3       4.999  87.084  61.659  1.00  0.00     0.241 C 
ATOM      5  O   ASP B   3       5.514  86.160  61.023  1.00  0.00    -0.271 OA
BRANCH   4   6
ATOM      6  CA  ASP B   3       3.497  87.214  61.755  1.00  0.00     0.186 C 
BRANCH   6   7
ATOM      7  CB  ASP B   3       3.045  88.667  61.442  1.00  0.00     0.147 C 
BRANCH   7   8
ATOM      8  CG  ASP B   3       2.448  88.888  60.044  1.00  0.00     0.175 C 
ATOM      9  OD2 ASP B   3       3.032  88.390  59.060  1.00  0.00    -0.648 OA
ATOM     10  OD1 ASP B   3       1.376  89.518  59.934  1.00  0.00    -0.648 OA
ENDBRANCH   7   8
ENDBRANCH   6   7
BRANCH   6  11
ATOM     11  N   ASP B   3       3.019  86.799  63.070  1.00  0.00    -0.345 N 
ATOM     12  C   CYS B   2       2.447  85.597  63.276  1.00  0.00     0.241 C 
ATOM     13  O   CYS B   2       2.307  84.774  62.376  1.00  0.00    -0.271 OA
ATOM     14  H   ASP B   3       3.117  87.413  63.826  1.00  0.00     0.163 HD
BRANCH  12  15
ATOM     15  CA  CYS B   2       2.022  85.301  64.696  1.00  0.00     0.185 C 
BRANCH  15  16
ATOM     16  N   CYS B   2       1.273  86.420  65.261  1.00  0.00    -0.345 N 
ATOM     17  H   CYS B   2       0.506  86.784  64.766  1.00  0.00     0.163 HD
ATOM     18  C   LYS B   1       1.606  86.960  66.437  1.00  0.00     0.254 C 
ATOM     19  O   LYS B   1       2.526  86.512  67.129  1.00  0.00    -0.271 OA
BRANCH  18  20
ATOM     20  CA  LYS B   1       0.761  88.125  66.899  1.00  0.00     0.350 C 
BRANCH  20  21
ATOM     21  CB  LYS B   1       1.506  89.470  66.686  1.00  0.00     0.048 C 
BRANCH  21  22
ATOM     22  CG  LYS B   1       2.207  89.995  67.964  1.00  0.00     0.004 C 
BRANCH  22  23
ATOM     23  CD  LYS B   1       1.653  91.315  68.507  1.00  0.00     0.027 C 
BRANCH  23  24
ATOM     24  CE  LYS B   1       1.783  91.327  70.036  1.00  0.00     0.229 C 
BRANCH  24  25
ATOM     25  NZ  LYS B   1       2.338  90.041  70.491  1.00  0.00    -0.079 N 
ATOM     26  HZ3 LYS B   1       2.960  89.725  69.760  1.00  0.00     0.274 HD
ATOM     27  HZ2 LYS B   1       1.596  89.353  70.660  1.00  0.00     0.274 HD
ATOM     28  HZ1 LYS B   1       2.832  90.154  71.384  1.00  0.00     0.274 HD
ENDBRANCH  24  25
ENDBRANCH  23  24
ENDBRANCH  22  23
ENDBRANCH  21  22
ENDBRANCH  20  21
BRANCH  20  29
ATOM     29  N   LYS B   1       0.403  87.984  68.308  1.00  0.00     0.312 N 
ATOM     30  H   LYS B   1      -0.576  88.378  68.469  1.00  0.00     0.359 HD
ENDBRANCH  20  29
ENDBRANCH  18  20
ENDBRANCH  15  16
BRANCH  15  31
ATOM     31  CB  CYS B   2       1.157  84.030  64.799  1.00  0.00     0.105 C 
BRANCH  31  32
ATOM     32  SG  CYS B   2       2.031  82.732  65.705  1.00  0.00    -0.180 SA
ATOM     33  HG  CYS B   2       3.231  82.947  65.171  1.00  0.00     0.101 HD
ENDBRANCH  31  32
ENDBRANCH  15  31
ENDBRANCH  12  15
ENDBRANCH   6  11
ENDBRANCH   4   6
ENDBRANCH   1   2
BRANCH   1  34
ATOM     34  CB  GLU B   4       7.713  88.951  61.159  1.00  0.00     0.045 C 
BRANCH  34  35
ATOM     35  CG  GLU B   4       8.053  88.258  59.851  1.00  0.00     0.116 C 
BRANCH  35  36
ATOM     36  CD  GLU B   4       6.982  88.443  58.792  1.00  0.00     0.172 C 
ATOM     37  OE1 GLU B   4       6.186  89.397  58.915  1.00  0.00    -0.648 OA
ATOM     38  OE2 GLU B   4       6.940  87.634  57.842  1.00  0.00    -0.648 OA
ENDBRANCH  35  36
ENDBRANCH  34  35
ENDBRANCH   1  34
BRANCH   1  39
ATOM     39  C   GLU B   4       7.763  88.383  63.591  1.00  0.00     0.241 C 
ATOM     40  O   GLU B   4       8.871  88.913  63.677  1.00  0.00    -0.271 OA
ATOM     41  N   THR B   5       7.007  88.106  64.650  1.00  7.70    -0.344 N 
ATOM     42  H   THR B   5       6.134  87.681  64.512  1.00  0.23     0.163 HD
BRANCH  41  43
ATOM     43  CA  THR B   5       7.438  88.416  66.009  1.00  7.88     0.205 C 
BRANCH  43  44
ATOM     44  CB  THR B   5       8.871  87.929  66.235  1.00  4.05     0.146 C 
ATOM     45  CG2 THR B   5       9.301  87.989  67.685  1.00  3.72     0.042 C 
BRANCH  44  46
ATOM     46  OG1 THR B   5       9.018  86.589  65.800  1.00  7.31    -0.393 OA
ATOM     47  HG1 THR B   5       8.161  86.237  65.550  1.00  0.23     0.210 HD
ENDBRANCH  44  46
ENDBRANCH  43  44
BRANCH  43  48
ATOM     48  C   THR B   5       7.352  89.916  66.272  1.00  7.05     0.243 C 
ATOM     49  N   TRP B   6       8.357  90.653  65.812  1.00  0.00    -0.346 N 
ATOM     50  H   TRP B   6       9.092  90.215  65.334  1.00  0.23     0.163 HD
ATOM     51  O   THR B   5       6.396  90.394  66.882  1.00  6.06    -0.271 OA
BRANCH  49  52
ATOM     52  CA  TRP B   6       8.394  92.097  66.001  1.00  0.00     0.181 C 
BRANCH  52  53
ATOM     53  CB  TRP B   6       9.502  92.714  65.147  1.00  0.00     0.075 C 
BRANCH  53  54
ATOM     54  CG  TRP B   6      10.853  92.134  65.435  1.00  0.00    -0.028 A 
ATOM     55  CD2 TRP B   6      12.088  92.478  64.794  1.00  0.00    -0.002 A 
ATOM     56  CE2 TRP B   6      13.096  91.694  65.385  1.00  0.00     0.042 A 
ATOM     57  CE3 TRP B   6      12.436  93.371  63.778  1.00  0.00     0.014 A 
ATOM     58  CZ2 TRP B   6      14.429  91.779  64.992  1.00  0.00     0.030 A 
ATOM     59  NE1 TRP B   6      12.503  90.911  66.341  1.00  0.00    -0.365 N 
ATOM     60  CH2 TRP B   6      14.744  92.661  63.995  1.00  0.00     0.002 A 
ATOM     61  CZ3 TRP B   6      13.761  93.454  63.389  1.00  0.00     0.001 A 
ATOM     62  HE1 TRP B   6      12.964  90.263  66.914  1.00  0.23     0.165 HD
ATOM     63  CD1 TRP B   6      11.156  91.181  66.364  1.00  0.00     0.096 A 
ENDBRANCH  53  54
ENDBRANCH  52  53
BRANCH  52  64
ATOM     64  C   TRP B   6       7.049  92.728  65.654  1.00  0.00     0.241 C 
ATOM     65  N   VAL B   7       6.472  92.294  64.538  1.00  6.11    -0.344 N 
ATOM     66  H   VAL B   7       6.921  91.607  64.004  1.00  0.23     0.163 HD
ATOM     67  O   TRP B   6       6.550  93.589  66.378  1.00  0.00    -0.271 OA
BRANCH  65  68
ATOM     68  CA  VAL B   7       5.187  92.815  64.088  1.00  5.65     0.189 C 
BRANCH  68  69
ATOM     69  CB  VAL B   7       5.086  92.796  62.550  1.00  1.15     0.010 C 
ATOM     70  CG1 VAL B   7       4.580  94.135  62.032  1.00  4.96     0.012 C 
ATOM     71  CG2 VAL B   7       6.429  92.449  61.927  1.00  9.83     0.012 C 
ENDBRANCH  68  69
BRANCH  68  72
ATOM     72  C   VAL B   7       4.030  92.011  64.674  1.00  4.44     0.197 C 
ATOM     73  OXT VAL B   7       3.464  92.447  65.696  1.00  0.00    -0.646 OA
ATOM     74  O   VAL B   7       3.701  90.950  64.102  1.00  0.00    -0.646 OA
ENDBRANCH  68  72
ENDBRANCH  65  68
ENDBRANCH  52  64
ENDBRANCH  49  52
ENDBRANCH  43  48
ENDBRANCH  41  43
ENDBRANCH   1  39
TORSDOF 31
ENDMDL
