MODEL 1
REMARK VINA RESULT:      -6.5      0.000      0.000
REMARK  31 active torsions:
REMARK  status: ('A' for Active; 'I' for Inactive)
REMARK    1  A    between atoms: N_1  and  CA_2 
REMARK    2  A    between atoms: CA_2  and  CB_5 
REMARK    3  A    between atoms: CA_2  and  C_3 
REMARK       I    between atoms: C_3  and  N_14 
REMARK    4  A    between atoms: CB_5  and  CG_6 
REMARK    5  A    between atoms: CG_6  and  CD_7 
REMARK    6  A    between atoms: CD_7  and  CE_8 
REMARK    7  A    between atoms: CE_8  and  NZ_9 
REMARK    8  A    between atoms: N_14  and  CA_15 
REMARK    9  A    between atoms: CA_15  and  C_16 
REMARK   10  A    between atoms: CA_15  and  CB_18 
REMARK       I    between atoms: C_16  and  N_22 
REMARK   11  A    between atoms: CB_18  and  SG_19 
REMARK   12  A    between atoms: N_22  and  CA_23 
REMARK   13  A    between atoms: CA_23  and  CB_26 
REMARK   14  A    between atoms: CA_23  and  C_24 
REMARK       I    between atoms: C_24  and  N_39 
REMARK   15  A    between atoms: CB_26  and  CG_27 
REMARK       I    between atoms: CG_27  and  ND2_28 
REMARK   16  A    between atoms: CA_33  and  N_39 
REMARK   17  A    between atoms: CA_33  and  CB_35 
REMARK   18  A    between atoms: CA_33  and  C_34 
REMARK       I    between atoms: C_34  and  N_49 
REMARK   19  A    between atoms: CB_35  and  CG_36 
REMARK   20  A    between atoms: CG_36  and  CD_37 
REMARK   21  A    between atoms: CA_43  and  N_49 
REMARK   22  A    between atoms: CA_43  and  CB_45 
REMARK   23  A    between atoms: CA_43  and  C_44 
REMARK       I    between atoms: C_44  and  N_65 
REMARK   24  A    between atoms: CB_45  and  OG1_51 
REMARK   25  A    between atoms: CA_52  and  CB_54 
REMARK   26  A    between atoms: CA_52  and  N_65 
REMARK   27  A    between atoms: CA_52  and  C_53 
REMARK       I    between atoms: C_53  and  N_74 
REMARK   28  A    between atoms: CB_54  and  CG_55 
REMARK   29  A    between atoms: CA_68  and  N_74 
REMARK   30  A    between atoms: CA_68  and  CB_70 
REMARK   31  A    between atoms: CA_68  and  C_69 
ROOT
ATOM      1  CA  GLU B   4       5.501  87.935  69.312  1.00  0.00     0.177 C 
ENDROOT
BRANCH   1   2
ATOM      2  N   GLU B   4       4.620  88.716  68.446  1.00  0.00    -0.346 N 
ATOM      3  H   GLU B   4       4.733  88.662  67.474  1.00  0.23     0.163 HD
ATOM      4  C   ASN B   3       3.676  89.506  68.947  1.00  0.00     0.241 C 
ATOM      5  O   ASN B   3       3.475  89.613  70.160  1.00  0.00    -0.271 OA
BRANCH   4   6
ATOM      6  CA  ASN B   3       2.820  90.268  67.962  1.00  0.00     0.185 C 
BRANCH   6   7
ATOM      7  N   ASN B   3       2.650  89.514  66.724  1.00  0.00    -0.346 N 
ATOM      8  C   CYS B   2       2.659  90.106  65.514  1.00  0.00     0.241 C 
ATOM      9  O   CYS B   2       2.805  91.318  65.382  1.00  0.00    -0.271 OA
ATOM     10  H   ASN B   3       2.524  88.541  66.774  1.00  0.00     0.163 HD
BRANCH   8  11
ATOM     11  CA  CYS B   2       2.512  89.189  64.322  1.00  0.00     0.185 C 
BRANCH  11  12
ATOM     12  N   CYS B   2       3.318  89.660  63.199  1.00  0.00    -0.345 N 
ATOM     13  H   CYS B   2       4.205  90.046  63.373  1.00  0.00     0.163 HD
ATOM     14  C   LYS B   1       2.879  89.577  61.940  1.00  0.00     0.254 C 
ATOM     15  O   LYS B   1       1.796  89.053  61.656  1.00  0.00    -0.271 OA
BRANCH  14  16
ATOM     16  CA  LYS B   1       3.803  90.116  60.873  1.00  0.00     0.350 C 
BRANCH  16  17
ATOM     17  N   LYS B   1       4.243  91.469  61.198  1.00  0.00     0.312 N 
ATOM     18  H   LYS B   1       4.863  91.444  62.067  1.00  0.00     0.359 HD
ENDBRANCH  16  17
BRANCH  16  19
ATOM     19  CB  LYS B   1       5.042  89.197  60.695  1.00  0.00     0.048 C 
BRANCH  19  20
ATOM     20  CG  LYS B   1       6.290  89.943  60.163  1.00  0.00     0.004 C 
BRANCH  20  21
ATOM     21  CD  LYS B   1       7.169  89.129  59.209  1.00  0.00     0.027 C 
BRANCH  21  22
ATOM     22  CE  LYS B   1       6.308  88.601  58.053  1.00  0.00     0.229 C 
BRANCH  22  23
ATOM     23  NZ  LYS B   1       7.069  88.690  56.795  1.00  0.00    -0.079 N 
ATOM     24  HZ3 LYS B   1       7.848  88.054  56.889  1.00  0.00     0.274 HD
ATOM     25  HZ2 LYS B   1       7.397  89.646  56.624  1.00  0.00     0.274 HD
ATOM     26  HZ1 LYS B   1       6.475  88.445  55.994  1.00  0.00     0.274 HD
ENDBRANCH  22  23
ENDBRANCH  21  22
ENDBRANCH  20  21
ENDBRANCH  19  20
ENDBRANCH  16  19
ENDBRANCH  14  16
ENDBRANCH  11  12
BRANCH  11  27
ATOM     27  CB  CYS B   2       2.918  87.738  64.643  1.00  0.00     0.105 C 
BRANCH  27  28
ATOM     28  SG  CYS B   2       1.498  86.629  64.500  1.00  0.00    -0.180 SA
ATOM     29  HG  CYS B   2       1.032  87.115  63.352  1.00  0.00     0.101 HD
ENDBRANCH  27  28
ENDBRANCH  11  27
ENDBRANCH   8  11
ENDBRANCH   6   7
BRANCH   6  30
ATOM     30  CB  ASN B   3       1.425  90.583  68.575  1.00  0.00     0.137 C 
BRANCH  30  31
ATOM     31  CG  ASN B   3       0.950  92.038  68.508  1.00  0.00     0.217 C 
ATOM     32  OD1 ASN B   3       0.703  92.689  69.513  1.00  0.00    -0.274 OA
ATOM     33  ND2 ASN B   3       0.781  92.594  67.338  1.00  0.00    -0.370 N 
ATOM     34 2HD2 ASN B   3       0.907  91.997  66.522  1.00  0.00     0.159 HD
ATOM     35 1HD2 ASN B   3       0.320  93.505  67.402  1.00  0.00     0.159 HD
ENDBRANCH  30  31
ENDBRANCH   6  30
ENDBRANCH   4   6
ENDBRANCH   1   2
BRANCH   1  36
ATOM     36  CB  GLU B   4       5.872  86.610  68.646  1.00  0.00     0.045 C 
BRANCH  36  37
ATOM     37  CG  GLU B   4       6.325  85.544  69.630  1.00  0.00     0.116 C 
BRANCH  37  38
ATOM     38  CD  GLU B   4       7.683  84.965  69.284  1.00  0.00     0.172 C 
ATOM     39  OE1 GLU B   4       8.226  85.323  68.218  1.00  0.00    -0.648 OA
ATOM     40  OE2 GLU B   4       8.202  84.154  70.079  1.00  0.00    -0.648 OA
ENDBRANCH  37  38
ENDBRANCH  36  37
ENDBRANCH   1  36
BRANCH   1  41
ATOM     41  C   GLU B   4       6.769  88.717  69.644  1.00  0.00     0.241 C 
ATOM     42  O   GLU B   4       6.812  89.460  70.625  1.00  0.00    -0.271 OA
ATOM     43  N   THR B   5       7.796  88.546  68.817  1.00  7.70    -0.344 N 
ATOM     44  H   THR B   5       7.695  87.941  68.052  1.00  0.23     0.163 HD
BRANCH  43  45
ATOM     45  CA  THR B   5       9.068  89.235  69.013  1.00  7.88     0.205 C 
BRANCH  45  46
ATOM     46  CB  THR B   5      10.225  88.237  68.962  1.00  4.05     0.146 C 
ATOM     47  CG2 THR B   5      10.353  87.406  70.220  1.00  3.72     0.042 C 
BRANCH  46  48
ATOM     48  OG1 THR B   5      10.070  87.345  67.872  1.00  7.31    -0.393 OA
ATOM     49  HG1 THR B   5      10.932  87.043  67.580  1.00  0.23     0.210 HD
ENDBRANCH  46  48
ENDBRANCH  45  46
BRANCH  45  50
ATOM     50  C   THR B   5       9.264  90.314  67.952  1.00  7.05     0.243 C 
ATOM     51  N   TRP B   6      10.399  90.263  67.264  1.00  0.00    -0.346 N 
ATOM     52  H   TRP B   6      11.046  89.553  67.460  1.00  0.23     0.163 HD
ATOM     53  O   THR B   5       8.405  91.175  67.764  1.00  6.06    -0.271 OA
BRANCH  51  54
ATOM     54  CA  TRP B   6      10.707  91.238  66.226  1.00  0.00     0.181 C 
BRANCH  54  55
ATOM     55  CB  TRP B   6      12.221  91.337  66.027  1.00  0.00     0.075 C 
BRANCH  55  56
ATOM     56  CG  TRP B   6      12.625  92.521  65.204  1.00  0.00    -0.028 A 
ATOM     57  CD2 TRP B   6      13.712  92.585  64.272  1.00  0.00    -0.002 A 
ATOM     58  CE2 TRP B   6      13.716  93.883  63.726  1.00  0.00     0.042 A 
ATOM     59  CE3 TRP B   6      14.682  91.672  63.849  1.00  0.00     0.014 A 
ATOM     60  CZ2 TRP B   6      14.652  94.287  62.778  1.00  0.00     0.030 A 
ATOM     61  NE1 TRP B   6      12.680  94.574  64.298  1.00  0.00    -0.365 N 
ATOM     62  CH2 TRP B   6      15.591  93.374  62.381  1.00  0.00     0.002 A 
ATOM     63  CZ3 TRP B   6      15.611  92.077  62.907  1.00  0.00     0.001 A 
ATOM     64  HE1 TRP B   6      12.441  95.505  64.106  1.00  0.23     0.165 HD
ATOM     65  CD1 TRP B   6      12.031  93.749  65.184  1.00  0.00     0.096 A 
ENDBRANCH  55  56
ENDBRANCH  54  55
BRANCH  54  66
ATOM     66  C   TRP B   6      10.027  90.869  64.912  1.00  0.00     0.241 C 
ATOM     67  N   VAL B   7       8.929  91.555  64.609  1.00  6.11    -0.344 N 
ATOM     68  H   VAL B   7       8.615  92.248  65.225  1.00  0.23     0.163 HD
ATOM     69  O   TRP B   6      10.486  89.981  64.192  1.00  0.00    -0.271 OA
BRANCH  67  70
ATOM     70  CA  VAL B   7       8.181  91.300  63.385  1.00  5.65     0.189 C 
BRANCH  70  71
ATOM     71  CB  VAL B   7       6.815  90.655  63.690  1.00  1.15     0.010 C 
ATOM     72  CG1 VAL B   7       6.941  89.139  63.740  1.00  4.96     0.012 C 
ATOM     73  CG2 VAL B   7       6.246  91.192  64.995  1.00  9.83     0.012 C 
ENDBRANCH  70  71
BRANCH  70  74
ATOM     74  C   VAL B   7       7.959  92.588  62.597  1.00  4.44     0.197 C 
ATOM     75  OXT VAL B   7       8.915  93.380  62.476  1.00  0.00    -0.646 OA
ATOM     76  O   VAL B   7       6.828  92.791  62.107  1.00  0.00    -0.646 OA
ENDBRANCH  70  74
ENDBRANCH  67  70
ENDBRANCH  54  66
ENDBRANCH  51  54
ENDBRANCH  45  50
ENDBRANCH  43  45
ENDBRANCH   1  41
TORSDOF 31
ENDMDL
MODEL 2
REMARK VINA RESULT:      -6.1      2.936      9.157
REMARK  31 active torsions:
REMARK  status: ('A' for Active; 'I' for Inactive)
REMARK    1  A    between atoms: N_1  and  CA_2 
REMARK    2  A    between atoms: CA_2  and  CB_5 
REMARK    3  A    between atoms: CA_2  and  C_3 
REMARK       I    between atoms: C_3  and  N_14 
REMARK    4  A    between atoms: CB_5  and  CG_6 
REMARK    5  A    between atoms: CG_6  and  CD_7 
REMARK    6  A    between atoms: CD_7  and  CE_8 
REMARK    7  A    between atoms: CE_8  and  NZ_9 
REMARK    8  A    between atoms: N_14  and  CA_15 
REMARK    9  A    between atoms: CA_15  and  C_16 
REMARK   10  A    between atoms: CA_15  and  CB_18 
REMARK       I    between atoms: C_16  and  N_22 
REMARK   11  A    between atoms: CB_18  and  SG_19 
REMARK   12  A    between atoms: N_22  and  CA_23 
REMARK   13  A    between atoms: CA_23  and  CB_26 
REMARK   14  A    between atoms: CA_23  and  C_24 
REMARK       I    between atoms: C_24  and  N_39 
REMARK   15  A    between atoms: CB_26  and  CG_27 
REMARK       I    between atoms: CG_27  and  ND2_28 
REMARK   16  A    between atoms: CA_33  and  N_39 
REMARK   17  A    between atoms: CA_33  and  CB_35 
REMARK   18  A    between atoms: CA_33  and  C_34 
REMARK       I    between atoms: C_34  and  N_49 
REMARK   19  A    between atoms: CB_35  and  CG_36 
REMARK   20  A    between atoms: CG_36  and  CD_37 
REMARK   21  A    between atoms: CA_43  and  N_49 
REMARK   22  A    between atoms: CA_43  and  CB_45 
REMARK   23  A    between atoms: CA_43  and  C_44 
REMARK       I    between atoms: C_44  and  N_65 
REMARK   24  A    between atoms: CB_45  and  OG1_51 
REMARK   25  A    between atoms: CA_52  and  CB_54 
REMARK   26  A    between atoms: CA_52  and  N_65 
REMARK   27  A    between atoms: CA_52  and  C_53 
REMARK       I    between atoms: C_53  and  N_74 
REMARK   28  A    between atoms: CB_54  and  CG_55 
REMARK   29  A    between atoms: CA_68  and  N_74 
REMARK   30  A    between atoms: CA_68  and  CB_70 
REMARK   31  A    between atoms: CA_68  and  C_69 
ROOT
ATOM      1  CA  GLU B   4       8.415  93.084  65.077  1.00  0.00     0.177 C 
ENDROOT
BRANCH   1   2
ATOM      2  N   GLU B   4       8.958  91.731  65.184  1.00  0.00    -0.346 N 
ATOM      3  H   GLU B   4       9.596  91.416  64.510  1.00  0.23     0.163 HD
ATOM      4  C   ASN B   3       8.598  90.914  66.168  1.00  0.00     0.241 C 
ATOM      5  O   ASN B   3       7.807  91.251  67.054  1.00  0.00    -0.271 OA
BRANCH   4   6
ATOM      6  CA  ASN B   3       9.221  89.538  66.185  1.00  0.00     0.185 C 
BRANCH   6   7
ATOM      7  N   ASN B   3       8.671  88.729  67.270  1.00  0.00    -0.346 N 
ATOM      8  C   CYS B   2       9.406  88.368  68.340  1.00  0.00     0.241 C 
ATOM      9  O   CYS B   2      10.583  88.693  68.463  1.00  0.00    -0.271 OA
ATOM     10  H   ASN B   3       7.735  88.437  67.218  1.00  0.00     0.163 HD
BRANCH   8  11
ATOM     11  CA  CYS B   2       8.688  87.565  69.400  1.00  0.00     0.185 C 
BRANCH  11  12
ATOM     12  N   CYS B   2       7.246  87.790  69.339  1.00  0.00    -0.345 N 
ATOM     13  H   CYS B   2       6.715  87.320  68.657  1.00  0.00     0.163 HD
ATOM     14  C   LYS B   1       6.631  88.619  70.187  1.00  0.00     0.254 C 
ATOM     15  O   LYS B   1       7.236  89.196  71.097  1.00  0.00    -0.271 OA
BRANCH  14  16
ATOM     16  CA  LYS B   1       5.139  88.776  70.004  1.00  0.00     0.350 C 
BRANCH  16  17
ATOM     17  N   LYS B   1       4.501  89.197  71.248  1.00  0.00     0.312 N 
ATOM     18  H   LYS B   1       4.854  88.593  72.053  1.00  0.00     0.359 HD
ENDBRANCH  16  17
BRANCH  16  19
ATOM     19  CB  LYS B   1       4.823  89.806  68.885  1.00  0.00     0.048 C 
BRANCH  19  20
ATOM     20  CG  LYS B   1       3.312  89.923  68.565  1.00  0.00     0.004 C 
BRANCH  20  21
ATOM     21  CD  LYS B   1       2.979  90.754  67.323  1.00  0.00     0.027 C 
BRANCH  21  22
ATOM     22  CE  LYS B   1       4.226  90.854  66.432  1.00  0.00     0.229 C 
BRANCH  22  23
ATOM     23  NZ  LYS B   1       3.813  91.039  65.031  1.00  0.00    -0.079 N 
ATOM     24  HZ3 LYS B   1       4.660  91.194  64.503  1.00  0.00     0.274 HD
ATOM     25  HZ2 LYS B   1       3.171  91.832  64.932  1.00  0.00     0.274 HD
ATOM     26  HZ1 LYS B   1       3.303  90.215  64.691  1.00  0.00     0.274 HD
ENDBRANCH  22  23
ENDBRANCH  21  22
ENDBRANCH  20  21
ENDBRANCH  19  20
ENDBRANCH  16  19
ENDBRANCH  14  16
ENDBRANCH  11  12
BRANCH  11  27
ATOM     27  CB  CYS B   2       8.954  86.053  69.275  1.00  0.00     0.105 C 
BRANCH  27  28
ATOM     28  SG  CYS B   2       9.903  85.450  70.690  1.00  0.00    -0.180 SA
ATOM     29  HG  CYS B   2      11.061  86.016  70.357  1.00  0.00     0.101 HD
ENDBRANCH  27  28
ENDBRANCH  11  27
ENDBRANCH   8  11
ENDBRANCH   6   7
BRANCH   6  30
ATOM     30  CB  ASN B   3       8.990  88.813  64.828  1.00  0.00     0.137 C 
BRANCH  30  31
ATOM     31  CG  ASN B   3       7.744  89.212  64.031  1.00  0.00     0.217 C 
ATOM     32  OD1 ASN B   3       7.809  89.895  63.019  1.00  0.00    -0.274 OA
ATOM     33  ND2 ASN B   3       6.571  88.830  64.461  1.00  0.00    -0.370 N 
ATOM     34 2HD2 ASN B   3       6.544  88.341  65.355  1.00  0.00     0.159 HD
ATOM     35 1HD2 ASN B   3       5.805  89.275  63.949  1.00  0.00     0.159 HD
ENDBRANCH  30  31
ENDBRANCH   6  30
ENDBRANCH   4   6
ENDBRANCH   1   2
BRANCH   1  36
ATOM     36  CB  GLU B   4       9.348  93.973  64.254  1.00  0.00     0.045 C 
BRANCH  36  37
ATOM     37  CG  GLU B   4      10.456  94.611  65.076  1.00  0.00     0.116 C 
BRANCH  37  38
ATOM     38  CD  GLU B   4      11.802  93.945  64.863  1.00  0.00     0.172 C 
ATOM     39  OE1 GLU B   4      12.725  94.620  64.362  1.00  0.00    -0.648 OA
ATOM     40  OE2 GLU B   4      11.932  92.749  65.198  1.00  0.00    -0.648 OA
ENDBRANCH  37  38
ENDBRANCH  36  37
ENDBRANCH   1  36
BRANCH   1  41
ATOM     41  C   GLU B   4       7.029  93.064  64.440  1.00  0.00     0.241 C 
ATOM     42  O   GLU B   4       6.025  93.317  65.107  1.00  0.00    -0.271 OA
ATOM     43  N   THR B   5       6.982  92.757  63.147  1.00  7.70    -0.344 N 
ATOM     44  H   THR B   5       7.819  92.564  62.674  1.00  0.23     0.163 HD
BRANCH  43  45
ATOM     45  CA  THR B   5       5.722  92.698  62.412  1.00  7.88     0.205 C 
BRANCH  45  46
ATOM     46  CB  THR B   5       5.327  94.092  61.923  1.00  4.05     0.146 C 
ATOM     47  CG2 THR B   5       4.567  94.073  60.615  1.00  3.72     0.042 C 
BRANCH  46  48
ATOM     48  OG1 THR B   5       4.516  94.748  62.881  1.00  7.31    -0.393 OA
ATOM     49  HG1 THR B   5       5.000  94.833  63.705  1.00  0.23     0.210 HD
ENDBRANCH  46  48
ENDBRANCH  45  46
BRANCH  45  50
ATOM     50  C   THR B   5       5.835  91.743  61.228  1.00  7.05     0.243 C 
ATOM     51  N   TRP B   6       5.005  90.706  61.228  1.00  0.00    -0.346 N 
ATOM     52  H   TRP B   6       4.372  90.599  61.969  1.00  0.23     0.163 HD
ATOM     53  O   THR B   5       6.658  91.942  60.335  1.00  6.06    -0.271 OA
BRANCH  51  54
ATOM     54  CA  TRP B   6       5.016  89.719  60.156  1.00  0.00     0.181 C 
BRANCH  54  55
ATOM     55  CB  TRP B   6       6.047  88.629  60.452  1.00  0.00     0.075 C 
BRANCH  55  56
ATOM     56  CG  TRP B   6       6.456  87.865  59.230  1.00  0.00    -0.028 A 
ATOM     57  CD2 TRP B   6       6.735  86.461  59.151  1.00  0.00    -0.002 A 
ATOM     58  CE2 TRP B   6       7.073  86.179  57.814  1.00  0.00     0.042 A 
ATOM     59  CE3 TRP B   6       6.733  85.418  60.081  1.00  0.00     0.014 A 
ATOM     60  CZ2 TRP B   6       7.403  84.896  57.386  1.00  0.00     0.030 A 
ATOM     61  NE1 TRP B   6       7.002  87.355  57.113  1.00  0.00    -0.365 N 
ATOM     62  CH2 TRP B   6       7.394  83.893  58.316  1.00  0.00     0.002 A 
ATOM     63  CZ3 TRP B   6       7.062  84.144  59.653  1.00  0.00     0.001 A 
ATOM     64  HE1 TRP B   6       7.186  87.461  56.156  1.00  0.23     0.165 HD
ATOM     65  CD1 TRP B   6       6.631  88.362  57.972  1.00  0.00     0.096 A 
ENDBRANCH  55  56
ENDBRANCH  54  55
BRANCH  54  66
ATOM     66  C   TRP B   6       3.634  89.101  59.970  1.00  0.00     0.241 C 
ATOM     67  N   VAL B   7       3.369  88.030  60.711  1.00  6.11    -0.344 N 
ATOM     68  H   VAL B   7       4.052  87.695  61.328  1.00  0.23     0.163 HD
ATOM     69  O   TRP B   6       2.831  89.581  59.170  1.00  0.00    -0.271 OA
BRANCH  67  70
ATOM     70  CA  VAL B   7       2.088  87.340  60.629  1.00  5.65     0.189 C 
BRANCH  70  71
ATOM     71  CB  VAL B   7       2.274  85.865  60.223  1.00  1.15     0.010 C 
ATOM     72  CG1 VAL B   7       2.857  85.766  58.821  1.00  4.96     0.012 C 
ATOM     73  CG2 VAL B   7       3.157  85.138  61.227  1.00  9.83     0.012 C 
ENDBRANCH  70  71
BRANCH  70  74
ATOM     74  C   VAL B   7       1.343  87.401  61.959  1.00  4.44     0.197 C 
ATOM     75  OXT VAL B   7       1.867  88.025  62.903  1.00  0.00    -0.646 OA
ATOM     76  O   VAL B   7       0.239  86.823  62.043  1.00  0.00    -0.646 OA
ENDBRANCH  70  74
ENDBRANCH  67  70
ENDBRANCH  54  66
ENDBRANCH  51  54
ENDBRANCH  45  50
ENDBRANCH  43  45
ENDBRANCH   1  41
TORSDOF 31
ENDMDL
MODEL 3
REMARK VINA RESULT:      -5.7      2.907      9.520
REMARK  31 active torsions:
REMARK  status: ('A' for Active; 'I' for Inactive)
REMARK    1  A    between atoms: N_1  and  CA_2 
REMARK    2  A    between atoms: CA_2  and  CB_5 
REMARK    3  A    between atoms: CA_2  and  C_3 
REMARK       I    between atoms: C_3  and  N_14 
REMARK    4  A    between atoms: CB_5  and  CG_6 
REMARK    5  A    between atoms: CG_6  and  CD_7 
REMARK    6  A    between atoms: CD_7  and  CE_8 
REMARK    7  A    between atoms: CE_8  and  NZ_9 
REMARK    8  A    between atoms: N_14  and  CA_15 
REMARK    9  A    between atoms: CA_15  and  C_16 
REMARK   10  A    between atoms: CA_15  and  CB_18 
REMARK       I    between atoms: C_16  and  N_22 
REMARK   11  A    between atoms: CB_18  and  SG_19 
REMARK   12  A    between atoms: N_22  and  CA_23 
REMARK   13  A    between atoms: CA_23  and  CB_26 
REMARK   14  A    between atoms: CA_23  and  C_24 
REMARK       I    between atoms: C_24  and  N_39 
REMARK   15  A    between atoms: CB_26  and  CG_27 
REMARK       I    between atoms: CG_27  and  ND2_28 
REMARK   16  A    between atoms: CA_33  and  N_39 
REMARK   17  A    between atoms: CA_33  and  CB_35 
REMARK   18  A    between atoms: CA_33  and  C_34 
REMARK       I    between atoms: C_34  and  N_49 
REMARK   19  A    between atoms: CB_35  and  CG_36 
REMARK   20  A    between atoms: CG_36  and  CD_37 
REMARK   21  A    between atoms: CA_43  and  N_49 
REMARK   22  A    between atoms: CA_43  and  CB_45 
REMARK   23  A    between atoms: CA_43  and  C_44 
REMARK       I    between atoms: C_44  and  N_65 
REMARK   24  A    between atoms: CB_45  and  OG1_51 
REMARK   25  A    between atoms: CA_52  and  CB_54 
REMARK   26  A    between atoms: CA_52  and  N_65 
REMARK   27  A    between atoms: CA_52  and  C_53 
REMARK       I    between atoms: C_53  and  N_74 
REMARK   28  A    between atoms: CB_54  and  CG_55 
REMARK   29  A    between atoms: CA_68  and  N_74 
REMARK   30  A    between atoms: CA_68  and  CB_70 
REMARK   31  A    between atoms: CA_68  and  C_69 
ROOT
ATOM      1  CA  GLU B   4       8.670  93.033  65.033  1.00  0.00     0.177 C 
ENDROOT
BRANCH   1   2
ATOM      2  N   GLU B   4       9.143  91.685  65.340  1.00  0.00    -0.346 N 
ATOM      3  H   GLU B   4       9.782  91.253  64.736  1.00  0.23     0.163 HD
ATOM      4  C   ASN B   3       8.716  91.026  66.412  1.00  0.00     0.241 C 
ATOM      5  O   ASN B   3       7.918  91.516  67.217  1.00  0.00    -0.271 OA
BRANCH   4   6
ATOM      6  CA  ASN B   3       9.269  89.639  66.636  1.00  0.00     0.185 C 
BRANCH   6   7
ATOM      7  N   ASN B   3       8.290  88.788  67.308  1.00  0.00    -0.346 N 
ATOM      8  C   CYS B   2       8.351  88.527  68.628  1.00  0.00     0.241 C 
ATOM      9  O   CYS B   2       9.237  88.985  69.344  1.00  0.00    -0.271 OA
ATOM     10  H   ASN B   3       7.563  88.392  66.779  1.00  0.00     0.163 HD
BRANCH   8  11
ATOM     11  CA  CYS B   2       7.245  87.663  69.187  1.00  0.00     0.185 C 
BRANCH  11  12
ATOM     12  N   CYS B   2       5.935  88.157  68.772  1.00  0.00    -0.345 N 
ATOM     13  H   CYS B   2       5.844  88.604  67.901  1.00  0.00     0.163 HD
ATOM     14  C   LYS B   1       4.856  88.017  69.548  1.00  0.00     0.254 C 
ATOM     15  O   LYS B   1       4.898  87.418  70.628  1.00  0.00    -0.271 OA
BRANCH  14  16
ATOM     16  CA  LYS B   1       3.566  88.589  69.009  1.00  0.00     0.350 C 
BRANCH  16  17
ATOM     17  N   LYS B   1       3.605  90.049  68.999  1.00  0.00     0.312 N 
ATOM     18  H   LYS B   1       3.535  90.402  67.994  1.00  0.00     0.359 HD
ENDBRANCH  16  17
BRANCH  16  19
ATOM     19  CB  LYS B   1       3.286  88.070  67.572  1.00  0.00     0.048 C 
BRANCH  19  20
ATOM     20  CG  LYS B   1       2.463  89.058  66.709  1.00  0.00     0.004 C 
BRANCH  20  21
ATOM     21  CD  LYS B   1       3.073  89.384  65.343  1.00  0.00     0.027 C 
BRANCH  21  22
ATOM     22  CE  LYS B   1       3.905  90.668  65.453  1.00  0.00     0.229 C 
BRANCH  22  23
ATOM     23  NZ  LYS B   1       5.307  90.320  65.745  1.00  0.00    -0.079 N 
ATOM     24  HZ3 LYS B   1       5.295  89.793  66.607  1.00  0.00     0.274 HD
ATOM     25  HZ2 LYS B   1       5.888  91.159  65.839  1.00  0.00     0.274 HD
ATOM     26  HZ1 LYS B   1       5.713  89.775  64.976  1.00  0.00     0.274 HD
ENDBRANCH  22  23
ENDBRANCH  21  22
ENDBRANCH  20  21
ENDBRANCH  19  20
ENDBRANCH  16  19
ENDBRANCH  14  16
ENDBRANCH  11  12
BRANCH  11  27
ATOM     27  CB  CYS B   2       7.372  86.190  68.754  1.00  0.00     0.105 C 
BRANCH  27  28
ATOM     28  SG  CYS B   2       8.859  85.441  69.458  1.00  0.00    -0.180 SA
ATOM     29  HG  CYS B   2       9.734  86.283  68.912  1.00  0.00     0.101 HD
ENDBRANCH  27  28
ENDBRANCH  11  27
ENDBRANCH   8  11
ENDBRANCH   6   7
BRANCH   6  30
ATOM     30  CB  ASN B   3       9.684  88.987  65.285  1.00  0.00     0.137 C 
BRANCH  30  31
ATOM     31  CG  ASN B   3       8.578  88.782  64.246  1.00  0.00     0.217 C 
ATOM     32  OD1 ASN B   3       7.484  88.322  64.540  1.00  0.00    -0.274 OA
ATOM     33  ND2 ASN B   3       8.821  89.084  62.998  1.00  0.00    -0.370 N 
ATOM     34 2HD2 ASN B   3       9.770  89.378  62.771  1.00  0.00     0.159 HD
ATOM     35 1HD2 ASN B   3       8.079  88.767  62.369  1.00  0.00     0.159 HD
ENDBRANCH  30  31
ENDBRANCH   6  30
ENDBRANCH   4   6
ENDBRANCH   1   2
BRANCH   1  36
ATOM     36  CB  GLU B   4       9.604  93.714  64.031  1.00  0.00     0.045 C 
BRANCH  36  37
ATOM     37  CG  GLU B   4      10.784  94.414  64.684  1.00  0.00     0.116 C 
BRANCH  37  38
ATOM     38  CD  GLU B   4      11.833  94.855  63.681  1.00  0.00     0.172 C 
ATOM     39  OE1 GLU B   4      11.466  95.534  62.700  1.00  0.00    -0.648 OA
ATOM     40  OE2 GLU B   4      13.020  94.521  63.878  1.00  0.00    -0.648 OA
ENDBRANCH  37  38
ENDBRANCH  36  37
ENDBRANCH   1  36
BRANCH   1  41
ATOM     41  C   GLU B   4       7.251  92.997  64.472  1.00  0.00     0.241 C 
ATOM     42  O   GLU B   4       6.292  93.339  65.164  1.00  0.00    -0.271 OA
ATOM     43  N   THR B   5       7.128  92.577  63.216  1.00  7.70    -0.344 N 
ATOM     44  H   THR B   5       7.933  92.318  62.721  1.00  0.23     0.163 HD
BRANCH  43  45
ATOM     45  CA  THR B   5       5.829  92.490  62.555  1.00  7.88     0.205 C 
BRANCH  45  46
ATOM     46  CB  THR B   5       5.788  93.418  61.341  1.00  4.05     0.146 C 
ATOM     47  CG2 THR B   5       7.129  93.565  60.655  1.00  3.72     0.042 C 
BRANCH  46  48
ATOM     48  OG1 THR B   5       4.864  92.943  60.378  1.00  7.31    -0.393 OA
ATOM     49  HG1 THR B   5       4.150  92.481  60.821  1.00  0.23     0.210 HD
ENDBRANCH  46  48
ENDBRANCH  45  46
BRANCH  45  50
ATOM     50  C   THR B   5       5.542  91.055  62.124  1.00  7.05     0.243 C 
ATOM     51  N   TRP B   6       4.261  90.719  62.017  1.00  0.00    -0.346 N 
ATOM     52  H   TRP B   6       3.572  91.388  62.214  1.00  0.23     0.163 HD
ATOM     53  O   THR B   5       6.462  90.270  61.895  1.00  6.06    -0.271 OA
BRANCH  51  54
ATOM     54  CA  TRP B   6       3.855  89.378  61.617  1.00  0.00     0.181 C 
BRANCH  54  55
ATOM     55  CB  TRP B   6       2.332  89.250  61.668  1.00  0.00     0.075 C 
BRANCH  55  56
ATOM     56  CG  TRP B   6       1.837  87.944  61.127  1.00  0.00    -0.028 A 
ATOM     57  CD2 TRP B   6       2.061  86.644  61.686  1.00  0.00    -0.002 A 
ATOM     58  CE2 TRP B   6       1.409  85.714  60.855  1.00  0.00     0.042 A 
ATOM     59  CE3 TRP B   6       2.752  86.178  62.808  1.00  0.00     0.014 A 
ATOM     60  CZ2 TRP B   6       1.426  84.346  61.112  1.00  0.00     0.030 A 
ATOM     61  NE1 TRP B   6       0.815  86.416  59.838  1.00  0.00    -0.365 N 
ATOM     62  CH2 TRP B   6       2.110  83.916  62.217  1.00  0.00     0.002 A 
ATOM     63  CZ3 TRP B   6       2.768  84.818  63.062  1.00  0.00     0.001 A 
ATOM     64  HE1 TRP B   6       0.289  86.027  59.108  1.00  0.23     0.165 HD
ATOM     65  CD1 TRP B   6       1.077  87.754  60.009  1.00  0.00     0.096 A 
ENDBRANCH  55  56
ENDBRANCH  54  55
BRANCH  54  66
ATOM     66  C   TRP B   6       4.364  89.049  60.217  1.00  0.00     0.241 C 
ATOM     67  N   VAL B   7       5.173  87.998  60.121  1.00  6.11    -0.344 N 
ATOM     68  H   VAL B   7       5.399  87.495  60.930  1.00  0.23     0.163 HD
ATOM     69  O   TRP B   6       4.033  89.734  59.249  1.00  0.00    -0.271 OA
BRANCH  67  70
ATOM     70  CA  VAL B   7       5.732  87.577  58.843  1.00  5.65     0.189 C 
BRANCH  70  71
ATOM     71  CB  VAL B   7       7.272  87.640  58.861  1.00  1.15     0.010 C 
ATOM     72  CG1 VAL B   7       7.756  89.003  58.387  1.00  4.96     0.012 C 
ATOM     73  CG2 VAL B   7       7.807  87.331  60.251  1.00  9.83     0.012 C 
ENDBRANCH  70  71
BRANCH  70  74
ATOM     74  C   VAL B   7       5.295  86.158  58.491  1.00  4.44     0.197 C 
ATOM     75  OXT VAL B   7       6.092  85.432  57.863  1.00  0.00    -0.646 OA
ATOM     76  O   VAL B   7       4.158  85.786  58.849  1.00  0.00    -0.646 OA
ENDBRANCH  70  74
ENDBRANCH  67  70
ENDBRANCH  54  66
ENDBRANCH  51  54
ENDBRANCH  45  50
ENDBRANCH  43  45
ENDBRANCH   1  41
TORSDOF 31
ENDMDL
MODEL 4
REMARK VINA RESULT:      -4.9      2.799      9.917
REMARK  31 active torsions:
REMARK  status: ('A' for Active; 'I' for Inactive)
REMARK    1  A    between atoms: N_1  and  CA_2 
REMARK    2  A    between atoms: CA_2  and  CB_5 
REMARK    3  A    between atoms: CA_2  and  C_3 
REMARK       I    between atoms: C_3  and  N_14 
REMARK    4  A    between atoms: CB_5  and  CG_6 
REMARK    5  A    between atoms: CG_6  and  CD_7 
REMARK    6  A    between atoms: CD_7  and  CE_8 
REMARK    7  A    between atoms: CE_8  and  NZ_9 
REMARK    8  A    between atoms: N_14  and  CA_15 
REMARK    9  A    between atoms: CA_15  and  C_16 
REMARK   10  A    between atoms: CA_15  and  CB_18 
REMARK       I    between atoms: C_16  and  N_22 
REMARK   11  A    between atoms: CB_18  and  SG_19 
REMARK   12  A    between atoms: N_22  and  CA_23 
REMARK   13  A    between atoms: CA_23  and  CB_26 
REMARK   14  A    between atoms: CA_23  and  C_24 
REMARK       I    between atoms: C_24  and  N_39 
REMARK   15  A    between atoms: CB_26  and  CG_27 
REMARK       I    between atoms: CG_27  and  ND2_28 
REMARK   16  A    between atoms: CA_33  and  N_39 
REMARK   17  A    between atoms: CA_33  and  CB_35 
REMARK   18  A    between atoms: CA_33  and  C_34 
REMARK       I    between atoms: C_34  and  N_49 
REMARK   19  A    between atoms: CB_35  and  CG_36 
REMARK   20  A    between atoms: CG_36  and  CD_37 
REMARK   21  A    between atoms: CA_43  and  N_49 
REMARK   22  A    between atoms: CA_43  and  CB_45 
REMARK   23  A    between atoms: CA_43  and  C_44 
REMARK       I    between atoms: C_44  and  N_65 
REMARK   24  A    between atoms: CB_45  and  OG1_51 
REMARK   25  A    between atoms: CA_52  and  CB_54 
REMARK   26  A    between atoms: CA_52  and  N_65 
REMARK   27  A    between atoms: CA_52  and  C_53 
REMARK       I    between atoms: C_53  and  N_74 
REMARK   28  A    between atoms: CB_54  and  CG_55 
REMARK   29  A    between atoms: CA_68  and  N_74 
REMARK   30  A    between atoms: CA_68  and  CB_70 
REMARK   31  A    between atoms: CA_68  and  C_69 
ROOT
ATOM      1  CA  GLU B   4       8.575  92.822  63.593  1.00  0.00     0.177 C 
ENDROOT
BRANCH   1   2
ATOM      2  N   GLU B   4       9.193  91.920  64.562  1.00  0.00    -0.346 N 
ATOM      3  H   GLU B   4       9.869  91.280  64.258  1.00  0.23     0.163 HD
ATOM      4  C   ASN B   3       8.849  91.939  65.846  1.00  0.00     0.241 C 
ATOM      5  O   ASN B   3       8.010  92.725  66.296  1.00  0.00    -0.271 OA
BRANCH   4   6
ATOM      6  CA  ASN B   3       9.551  90.964  66.763  1.00  0.00     0.185 C 
BRANCH   6   7
ATOM      7  N   ASN B   3       8.599  90.031  67.360  1.00  0.00    -0.346 N 
ATOM      8  C   CYS B   2       7.820  89.224  66.614  1.00  0.00     0.241 C 
ATOM      9  O   CYS B   2       7.861  89.229  65.387  1.00  0.00    -0.271 OA
ATOM     10  H   ASN B   3       8.524  89.991  68.338  1.00  0.00     0.163 HD
BRANCH   8  11
ATOM     11  CA  CYS B   2       6.915  88.283  67.375  1.00  0.00     0.185 C 
BRANCH  11  12
ATOM     12  N   CYS B   2       7.657  87.124  67.863  1.00  0.00    -0.345 N 
ATOM     13  H   CYS B   2       7.616  86.280  67.361  1.00  0.00     0.163 HD
ATOM     14  C   LYS B   1       8.392  87.184  68.978  1.00  0.00     0.254 C 
ATOM     15  O   LYS B   1       8.524  88.230  69.622  1.00  0.00    -0.271 OA
BRANCH  14  16
ATOM     16  CA  LYS B   1       9.095  85.909  69.384  1.00  0.00     0.350 C 
BRANCH  16  17
ATOM     17  N   LYS B   1      10.427  86.192  69.910  1.00  0.00     0.312 N 
ATOM     18  H   LYS B   1      10.349  86.849  70.747  1.00  0.00     0.359 HD
ENDBRANCH  16  17
BRANCH  16  19
ATOM     19  CB  LYS B   1       8.271  85.136  70.449  1.00  0.00     0.048 C 
BRANCH  19  20
ATOM     20  CG  LYS B   1       8.914  83.790  70.867  1.00  0.00     0.004 C 
BRANCH  20  21
ATOM     21  CD  LYS B   1       7.955  82.597  70.887  1.00  0.00     0.027 C 
BRANCH  21  22
ATOM     22  CE  LYS B   1       7.104  82.610  69.610  1.00  0.00     0.229 C 
BRANCH  22  23
ATOM     23  NZ  LYS B   1       7.490  81.476  68.753  1.00  0.00    -0.079 N 
ATOM     24  HZ3 LYS B   1       8.089  81.855  68.033  1.00  0.00     0.274 HD
ATOM     25  HZ2 LYS B   1       6.668  81.023  68.340  1.00  0.00     0.274 HD
ATOM     26  HZ1 LYS B   1       7.969  80.753  69.302  1.00  0.00     0.274 HD
ENDBRANCH  22  23
ENDBRANCH  21  22
ENDBRANCH  20  21
ENDBRANCH  19  20
ENDBRANCH  16  19
ENDBRANCH  14  16
ENDBRANCH  11  12
BRANCH  11  27
ATOM     27  CB  CYS B   2       6.230  88.967  68.574  1.00  0.00     0.105 C 
BRANCH  27  28
ATOM     28  SG  CYS B   2       5.348  90.453  68.045  1.00  0.00    -0.180 SA
ATOM     29  HG  CYS B   2       4.573  89.864  67.138  1.00  0.00     0.101 HD
ENDBRANCH  27  28
ENDBRANCH  11  27
ENDBRANCH   8  11
ENDBRANCH   6   7
BRANCH   6  30
ATOM     30  CB  ASN B   3      10.643  90.170  65.990  1.00  0.00     0.137 C 
BRANCH  30  31
ATOM     31  CG  ASN B   3      12.093  90.628  66.172  1.00  0.00     0.217 C 
ATOM     32  OD1 ASN B   3      12.414  91.459  67.009  1.00  0.00    -0.274 OA
ATOM     33  ND2 ASN B   3      13.014  90.133  65.388  1.00  0.00    -0.370 N 
ATOM     34 2HD2 ASN B   3      12.700  89.513  64.643  1.00  0.00     0.159 HD
ATOM     35 1HD2 ASN B   3      13.911  90.614  65.489  1.00  0.00     0.159 HD
ENDBRANCH  30  31
ENDBRANCH   6  30
ENDBRANCH   4   6
ENDBRANCH   1   2
BRANCH   1  36
ATOM     36  CB  GLU B   4       9.639  93.667  62.892  1.00  0.00     0.045 C 
BRANCH  36  37
ATOM     37  CG  GLU B   4      10.530  94.436  63.854  1.00  0.00     0.116 C 
BRANCH  37  38
ATOM     38  CD  GLU B   4      11.958  93.923  63.869  1.00  0.00     0.172 C 
ATOM     39  OE1 GLU B   4      12.149  92.699  63.710  1.00  0.00    -0.648 OA
ATOM     40  OE2 GLU B   4      12.882  94.744  64.040  1.00  0.00    -0.648 OA
ENDBRANCH  37  38
ENDBRANCH  36  37
ENDBRANCH   1  36
BRANCH   1  41
ATOM     41  C   GLU B   4       7.774  92.040  62.556  1.00  0.00     0.241 C 
ATOM     42  O   GLU B   4       7.218  92.618  61.622  1.00  0.00    -0.271 OA
ATOM     43  N   THR B   5       7.716  90.723  62.732  1.00  7.70    -0.344 N 
ATOM     44  H   THR B   5       8.180  90.325  63.499  1.00  0.23     0.163 HD
BRANCH  43  45
ATOM     45  CA  THR B   5       6.982  89.853  61.818  1.00  7.88     0.205 C 
BRANCH  45  46
ATOM     46  CB  THR B   5       7.664  88.488  61.722  1.00  4.05     0.146 C 
ATOM     47  CG2 THR B   5       8.061  88.117  60.309  1.00  3.72     0.042 C 
BRANCH  46  48
ATOM     48  OG1 THR B   5       8.834  88.455  62.519  1.00  7.31    -0.393 OA
ATOM     49  HG1 THR B   5       9.086  89.351  62.754  1.00  0.23     0.210 HD
ENDBRANCH  46  48
ENDBRANCH  45  46
BRANCH  45  50
ATOM     50  C   THR B   5       5.539  89.683  62.282  1.00  7.05     0.243 C 
ATOM     51  N   TRP B   6       5.342  88.850  63.298  1.00  0.00    -0.346 N 
ATOM     52  H   TRP B   6       6.111  88.393  63.698  1.00  0.23     0.163 HD
ATOM     53  O   THR B   5       4.623  90.291  61.728  1.00  6.06    -0.271 OA
BRANCH  51  54
ATOM     54  CA  TRP B   6       4.010  88.598  63.832  1.00  0.00     0.181 C 
BRANCH  54  55
ATOM     55  CB  TRP B   6       3.463  89.859  64.503  1.00  0.00     0.075 C 
BRANCH  55  56
ATOM     56  CG  TRP B   6       2.710  89.568  65.766  1.00  0.00    -0.028 A 
ATOM     57  CD2 TRP B   6       1.982  90.509  66.565  1.00  0.00    -0.002 A 
ATOM     58  CE2 TRP B   6       1.431  89.797  67.647  1.00  0.00     0.042 A 
ATOM     59  CE3 TRP B   6       1.746  91.883  66.471  1.00  0.00     0.014 A 
ATOM     60  CZ2 TRP B   6       0.657  90.415  68.626  1.00  0.00     0.030 A 
ATOM     61  NE1 TRP B   6       1.805  88.486  67.512  1.00  0.00    -0.365 N 
ATOM     62  CH2 TRP B   6       0.441  91.761  68.510  1.00  0.00     0.002 A 
ATOM     63  CZ3 TRP B   6       0.977  92.495  67.444  1.00  0.00     0.001 A 
ATOM     64  HE1 TRP B   6       1.564  87.758  68.123  1.00  0.23     0.165 HD
ATOM     65  CD1 TRP B   6       2.573  88.357  66.379  1.00  0.00     0.096 A 
ENDBRANCH  55  56
ENDBRANCH  54  55
BRANCH  54  66
ATOM     66  C   TRP B   6       3.061  88.134  62.732  1.00  0.00     0.241 C 
ATOM     67  N   VAL B   7       3.475  87.105  61.999  1.00  6.11    -0.344 N 
ATOM     68  H   VAL B   7       4.345  86.700  62.193  1.00  0.23     0.163 HD
ATOM     69  O   TRP B   6       1.981  88.698  62.550  1.00  0.00    -0.271 OA
BRANCH  67  70
ATOM     70  CA  VAL B   7       2.666  86.564  60.914  1.00  5.65     0.189 C 
BRANCH  70  71
ATOM     71  CB  VAL B   7       3.542  86.184  59.703  1.00  1.15     0.010 C 
ATOM     72  CG1 VAL B   7       2.673  85.885  58.489  1.00  4.96     0.012 C 
ATOM     73  CG2 VAL B   7       4.540  87.289  59.393  1.00  9.83     0.012 C 
ENDBRANCH  70  71
BRANCH  70  74
ATOM     74  C   VAL B   7       1.884  85.335  61.369  1.00  4.44     0.197 C 
ATOM     75  OXT VAL B   7       2.522  84.309  61.680  1.00  0.00    -0.646 OA
ATOM     76  O   VAL B   7       0.638  85.412  61.410  1.00  0.00    -0.646 OA
ENDBRANCH  70  74
ENDBRANCH  67  70
ENDBRANCH  54  66
ENDBRANCH  51  54
ENDBRANCH  45  50
ENDBRANCH  43  45
ENDBRANCH   1  41
TORSDOF 31
ENDMDL
MODEL 5
REMARK VINA RESULT:      -4.3      3.281      9.772
REMARK  31 active torsions:
REMARK  status: ('A' for Active; 'I' for Inactive)
REMARK    1  A    between atoms: N_1  and  CA_2 
REMARK    2  A    between atoms: CA_2  and  CB_5 
REMARK    3  A    between atoms: CA_2  and  C_3 
REMARK       I    between atoms: C_3  and  N_14 
REMARK    4  A    between atoms: CB_5  and  CG_6 
REMARK    5  A    between atoms: CG_6  and  CD_7 
REMARK    6  A    between atoms: CD_7  and  CE_8 
REMARK    7  A    between atoms: CE_8  and  NZ_9 
REMARK    8  A    between atoms: N_14  and  CA_15 
REMARK    9  A    between atoms: CA_15  and  C_16 
REMARK   10  A    between atoms: CA_15  and  CB_18 
REMARK       I    between atoms: C_16  and  N_22 
REMARK   11  A    between atoms: CB_18  and  SG_19 
REMARK   12  A    between atoms: N_22  and  CA_23 
REMARK   13  A    between atoms: CA_23  and  CB_26 
REMARK   14  A    between atoms: CA_23  and  C_24 
REMARK       I    between atoms: C_24  and  N_39 
REMARK   15  A    between atoms: CB_26  and  CG_27 
REMARK       I    between atoms: CG_27  and  ND2_28 
REMARK   16  A    between atoms: CA_33  and  N_39 
REMARK   17  A    between atoms: CA_33  and  CB_35 
REMARK   18  A    between atoms: CA_33  and  C_34 
REMARK       I    between atoms: C_34  and  N_49 
REMARK   19  A    between atoms: CB_35  and  CG_36 
REMARK   20  A    between atoms: CG_36  and  CD_37 
REMARK   21  A    between atoms: CA_43  and  N_49 
REMARK   22  A    between atoms: CA_43  and  CB_45 
REMARK   23  A    between atoms: CA_43  and  C_44 
REMARK       I    between atoms: C_44  and  N_65 
REMARK   24  A    between atoms: CB_45  and  OG1_51 
REMARK   25  A    between atoms: CA_52  and  CB_54 
REMARK   26  A    between atoms: CA_52  and  N_65 
REMARK   27  A    between atoms: CA_52  and  C_53 
REMARK       I    between atoms: C_53  and  N_74 
REMARK   28  A    between atoms: CB_54  and  CG_55 
REMARK   29  A    between atoms: CA_68  and  N_74 
REMARK   30  A    between atoms: CA_68  and  CB_70 
REMARK   31  A    between atoms: CA_68  and  C_69 
ROOT
ATOM      1  CA  GLU B   4       8.775  92.664  63.997  1.00  0.00     0.177 C 
ENDROOT
BRANCH   1   2
ATOM      2  N   GLU B   4       9.420  91.762  64.948  1.00  0.00    -0.346 N 
ATOM      3  H   GLU B   4      10.127  91.161  64.634  1.00  0.23     0.163 HD
ATOM      4  C   ASN B   3       9.061  91.728  66.227  1.00  0.00     0.241 C 
ATOM      5  O   ASN B   3       8.183  92.464  66.689  1.00  0.00    -0.271 OA
BRANCH   4   6
ATOM      6  CA  ASN B   3       9.793  90.758  67.125  1.00  0.00     0.185 C 
BRANCH   6   7
ATOM      7  N   ASN B   3       8.880  89.752  67.662  1.00  0.00    -0.346 N 
ATOM      8  C   CYS B   2       8.056  89.036  66.873  1.00  0.00     0.241 C 
ATOM      9  O   CYS B   2       8.019  89.192  65.656  1.00  0.00    -0.271 OA
ATOM     10  H   ASN B   3       8.867  89.593  68.631  1.00  0.00     0.163 HD
BRANCH   8  11
ATOM     11  CA  CYS B   2       7.200  88.004  67.569  1.00  0.00     0.185 C 
BRANCH  11  12
ATOM     12  N   CYS B   2       8.024  86.953  68.159  1.00  0.00    -0.345 N 
ATOM     13  H   CYS B   2       8.202  86.135  67.644  1.00  0.00     0.163 HD
ATOM     14  C   LYS B   1       8.544  87.077  69.384  1.00  0.00     0.254 C 
ATOM     15  O   LYS B   1       8.399  88.103  70.057  1.00  0.00    -0.271 OA
BRANCH  14  16
ATOM     16  CA  LYS B   1       9.363  85.910  69.884  1.00  0.00     0.350 C 
BRANCH  16  17
ATOM     17  N   LYS B   1      10.673  86.352  70.351  1.00  0.00     0.312 N 
ATOM     18  H   LYS B   1      11.023  85.691  71.113  1.00  0.00     0.359 HD
ENDBRANCH  16  17
BRANCH  16  19
ATOM     19  CB  LYS B   1       8.627  85.168  71.032  1.00  0.00     0.048 C 
BRANCH  19  20
ATOM     20  CG  LYS B   1       8.664  83.626  70.892  1.00  0.00     0.004 C 
BRANCH  20  21
ATOM     21  CD  LYS B   1       7.482  83.019  70.130  1.00  0.00     0.027 C 
BRANCH  21  22
ATOM     22  CE  LYS B   1       6.313  84.013  70.137  1.00  0.00     0.229 C 
BRANCH  22  23
ATOM     23  NZ  LYS B   1       5.091  83.329  70.595  1.00  0.00    -0.079 N 
ATOM     24  HZ3 LYS B   1       4.609  83.981  71.197  1.00  0.00     0.274 HD
ATOM     25  HZ2 LYS B   1       5.314  82.464  71.098  1.00  0.00     0.274 HD
ATOM     26  HZ1 LYS B   1       4.509  83.052  69.795  1.00  0.00     0.274 HD
ENDBRANCH  22  23
ENDBRANCH  21  22
ENDBRANCH  20  21
ENDBRANCH  19  20
ENDBRANCH  16  19
ENDBRANCH  14  16
ENDBRANCH  11  12
BRANCH  11  27
ATOM     27  CB  CYS B   2       6.321  88.617  68.676  1.00  0.00     0.105 C 
BRANCH  27  28
ATOM     28  SG  CYS B   2       5.283  89.939  68.012  1.00  0.00    -0.180 SA
ATOM     29  HG  CYS B   2       4.231  89.726  68.798  1.00  0.00     0.101 HD
ENDBRANCH  27  28
ENDBRANCH  11  27
ENDBRANCH   8  11
ENDBRANCH   6   7
BRANCH   6  30
ATOM     30  CB  ASN B   3      10.945  90.055  66.352  1.00  0.00     0.137 C 
BRANCH  30  31
ATOM     31  CG  ASN B   3      12.352  90.637  66.522  1.00  0.00     0.217 C 
ATOM     32  OD1 ASN B   3      13.359  89.960  66.376  1.00  0.00    -0.274 OA
ATOM     33  ND2 ASN B   3      12.478  91.893  66.860  1.00  0.00    -0.370 N 
ATOM     34 2HD2 ASN B   3      11.620  92.404  67.063  1.00  0.00     0.159 HD
ATOM     35 1HD2 ASN B   3      13.443  92.138  67.096  1.00  0.00     0.159 HD
ENDBRANCH  30  31
ENDBRANCH   6  30
ENDBRANCH   4   6
ENDBRANCH   1   2
BRANCH   1  36
ATOM     36  CB  GLU B   4       9.779  93.688  63.464  1.00  0.00     0.045 C 
BRANCH  36  37
ATOM     37  CG  GLU B   4      11.227  93.272  63.659  1.00  0.00     0.116 C 
BRANCH  37  38
ATOM     38  CD  GLU B   4      12.072  94.367  64.283  1.00  0.00     0.172 C 
ATOM     39  OE1 GLU B   4      11.945  94.590  65.505  1.00  0.00    -0.648 OA
ATOM     40  OE2 GLU B   4      12.860  94.999  63.549  1.00  0.00    -0.648 OA
ENDBRANCH  37  38
ENDBRANCH  36  37
ENDBRANCH   1  36
BRANCH   1  41
ATOM     41  C   GLU B   4       8.167  91.885  62.834  1.00  0.00     0.241 C 
ATOM     42  O   GLU B   4       7.748  92.469  61.835  1.00  0.00    -0.271 OA
ATOM     43  N   THR B   5       8.120  90.564  62.976  1.00  7.70    -0.344 N 
ATOM     44  H   THR B   5       8.469  90.161  63.799  1.00  0.23     0.163 HD
BRANCH  43  45
ATOM     45  CA  THR B   5       7.561  89.696  61.943  1.00  7.88     0.205 C 
BRANCH  45  46
ATOM     46  CB  THR B   5       7.761  88.227  62.319  1.00  4.05     0.146 C 
ATOM     47  CG2 THR B   5       8.132  87.354  61.140  1.00  3.72     0.042 C 
BRANCH  46  48
ATOM     48  OG1 THR B   5       8.784  88.093  63.290  1.00  7.31    -0.393 OA
ATOM     49  HG1 THR B   5       9.641  88.188  62.868  1.00  0.23     0.210 HD
ENDBRANCH  46  48
ENDBRANCH  45  46
BRANCH  45  50
ATOM     50  C   THR B   5       6.077  89.985  61.745  1.00  7.05     0.243 C 
ATOM     51  N   TRP B   6       5.608  89.833  60.511  1.00  0.00    -0.346 N 
ATOM     52  H   TRP B   6       6.218  89.550  59.798  1.00  0.23     0.163 HD
ATOM     53  O   THR B   5       5.372  90.339  62.689  1.00  6.06    -0.271 OA
BRANCH  51  54
ATOM     54  CA  TRP B   6       4.208  90.082  60.190  1.00  0.00     0.181 C 
BRANCH  54  55
ATOM     55  CB  TRP B   6       3.324  89.750  61.393  1.00  0.00     0.075 C 
BRANCH  55  56
ATOM     56  CG  TRP B   6       2.442  88.562  61.159  1.00  0.00    -0.028 A 
ATOM     57  CD2 TRP B   6       2.781  87.187  61.383  1.00  0.00    -0.002 A 
ATOM     58  CE2 TRP B   6       1.652  86.420  61.037  1.00  0.00     0.042 A 
ATOM     59  CE3 TRP B   6       3.927  86.533  61.840  1.00  0.00     0.014 A 
ATOM     60  CZ2 TRP B   6       1.640  85.031  61.136  1.00  0.00     0.030 A 
ATOM     61  NE1 TRP B   6       0.674  87.287  60.623  1.00  0.00    -0.365 N 
ATOM     62  CH2 TRP B   6       2.775  84.415  61.586  1.00  0.00     0.002 A 
ATOM     63  CZ3 TRP B   6       3.912  85.153  61.937  1.00  0.00     0.001 A 
ATOM     64  HE1 TRP B   6      -0.223  87.032  60.322  1.00  0.23     0.165 HD
ATOM     65  CD1 TRP B   6       1.157  88.571  60.700  1.00  0.00     0.096 A 
ENDBRANCH  55  56
ENDBRANCH  54  55
BRANCH  54  66
ATOM     66  C   TRP B   6       3.996  91.531  59.764  1.00  0.00     0.241 C 
ATOM     67  N   VAL B   7       4.699  92.444  60.428  1.00  6.11    -0.344 N 
ATOM     68  H   VAL B   7       5.306  92.154  61.139  1.00  0.23     0.163 HD
ATOM     69  O   TRP B   6       3.210  91.814  58.859  1.00  0.00    -0.271 OA
BRANCH  67  70
ATOM     70  CA  VAL B   7       4.588  93.865  60.124  1.00  5.65     0.189 C 
BRANCH  70  71
ATOM     71  CB  VAL B   7       4.553  94.709  61.413  1.00  1.15     0.010 C 
ATOM     72  CG1 VAL B   7       3.289  95.557  61.462  1.00  4.96     0.012 C 
ATOM     73  CG2 VAL B   7       4.653  93.819  62.642  1.00  9.83     0.012 C 
ENDBRANCH  70  71
BRANCH  70  74
ATOM     74  C   VAL B   7       5.748  94.335  59.252  1.00  4.44     0.197 C 
ATOM     75  OXT VAL B   7       6.883  94.408  59.766  1.00  0.00    -0.646 OA
ATOM     76  O   VAL B   7       5.510  94.623  58.060  1.00  0.00    -0.646 OA
ENDBRANCH  70  74
ENDBRANCH  67  70
ENDBRANCH  54  66
ENDBRANCH  51  54
ENDBRANCH  45  50
ENDBRANCH  43  45
ENDBRANCH   1  41
TORSDOF 31
ENDMDL
MODEL 6
REMARK VINA RESULT:      -4.0      2.851     10.013
REMARK  31 active torsions:
REMARK  status: ('A' for Active; 'I' for Inactive)
REMARK    1  A    between atoms: N_1  and  CA_2 
REMARK    2  A    between atoms: CA_2  and  CB_5 
REMARK    3  A    between atoms: CA_2  and  C_3 
REMARK       I    between atoms: C_3  and  N_14 
REMARK    4  A    between atoms: CB_5  and  CG_6 
REMARK    5  A    between atoms: CG_6  and  CD_7 
REMARK    6  A    between atoms: CD_7  and  CE_8 
REMARK    7  A    between atoms: CE_8  and  NZ_9 
REMARK    8  A    between atoms: N_14  and  CA_15 
REMARK    9  A    between atoms: CA_15  and  C_16 
REMARK   10  A    between atoms: CA_15  and  CB_18 
REMARK       I    between atoms: C_16  and  N_22 
REMARK   11  A    between atoms: CB_18  and  SG_19 
REMARK   12  A    between atoms: N_22  and  CA_23 
REMARK   13  A    between atoms: CA_23  and  CB_26 
REMARK   14  A    between atoms: CA_23  and  C_24 
REMARK       I    between atoms: C_24  and  N_39 
REMARK   15  A    between atoms: CB_26  and  CG_27 
REMARK       I    between atoms: CG_27  and  ND2_28 
REMARK   16  A    between atoms: CA_33  and  N_39 
REMARK   17  A    between atoms: CA_33  and  CB_35 
REMARK   18  A    between atoms: CA_33  and  C_34 
REMARK       I    between atoms: C_34  and  N_49 
REMARK   19  A    between atoms: CB_35  and  CG_36 
REMARK   20  A    between atoms: CG_36  and  CD_37 
REMARK   21  A    between atoms: CA_43  and  N_49 
REMARK   22  A    between atoms: CA_43  and  CB_45 
REMARK   23  A    between atoms: CA_43  and  C_44 
REMARK       I    between atoms: C_44  and  N_65 
REMARK   24  A    between atoms: CB_45  and  OG1_51 
REMARK   25  A    between atoms: CA_52  and  CB_54 
REMARK   26  A    between atoms: CA_52  and  N_65 
REMARK   27  A    between atoms: CA_52  and  C_53 
REMARK       I    between atoms: C_53  and  N_74 
REMARK   28  A    between atoms: CB_54  and  CG_55 
REMARK   29  A    between atoms: CA_68  and  N_74 
REMARK   30  A    between atoms: CA_68  and  CB_70 
REMARK   31  A    between atoms: CA_68  and  C_69 
ROOT
ATOM      1  CA  GLU B   4       8.410  92.392  63.543  1.00  0.00     0.177 C 
ENDROOT
BRANCH   1   2
ATOM      2  N   GLU B   4       9.192  91.491  64.387  1.00  0.00    -0.346 N 
ATOM      3  H   GLU B   4       9.823  90.870  63.968  1.00  0.23     0.163 HD
ATOM      4  C   ASN B   3       9.058  91.487  65.709  1.00  0.00     0.241 C 
ATOM      5  O   ASN B   3       8.288  92.249  66.300  1.00  0.00    -0.271 OA
BRANCH   4   6
ATOM      6  CA  ASN B   3       9.915  90.516  66.487  1.00  0.00     0.185 C 
BRANCH   6   7
ATOM      7  N   ASN B   3       9.110  89.424  67.027  1.00  0.00    -0.346 N 
ATOM      8  C   CYS B   2       8.540  88.493  66.238  1.00  0.00     0.241 C 
ATOM      9  O   CYS B   2       8.660  88.510  65.016  1.00  0.00    -0.271 OA
ATOM     10  H   ASN B   3       8.978  89.367  67.999  1.00  0.00     0.163 HD
BRANCH   8  11
ATOM     11  CA  CYS B   2       7.770  87.402  66.945  1.00  0.00     0.185 C 
BRANCH  11  12
ATOM     12  N   CYS B   2       8.644  86.631  67.825  1.00  0.00    -0.345 N 
ATOM     13  H   CYS B   2       9.157  85.879  67.454  1.00  0.00     0.163 HD
ATOM     14  C   LYS B   1       8.763  86.925  69.123  1.00  0.00     0.254 C 
ATOM     15  O   LYS B   1       8.185  87.890  69.634  1.00  0.00    -0.271 OA
BRANCH  14  16
ATOM     16  CA  LYS B   1       9.686  86.038  69.926  1.00  0.00     0.350 C 
BRANCH  16  17
ATOM     17  N   LYS B   1      10.814  86.800  70.455  1.00  0.00     0.312 N 
ATOM     18  H   LYS B   1      10.494  87.377  71.294  1.00  0.00     0.359 HD
ENDBRANCH  16  17
BRANCH  16  19
ATOM     19  CB  LYS B   1       8.924  85.361  71.098  1.00  0.00     0.048 C 
BRANCH  19  20
ATOM     20  CG  LYS B   1       8.742  83.834  70.914  1.00  0.00     0.004 C 
BRANCH  20  21
ATOM     21  CD  LYS B   1       7.714  83.432  69.852  1.00  0.00     0.027 C 
BRANCH  21  22
ATOM     22  CE  LYS B   1       6.496  82.802  70.541  1.00  0.00     0.229 C 
BRANCH  22  23
ATOM     23  NZ  LYS B   1       5.642  83.866  71.096  1.00  0.00    -0.079 N 
ATOM     24  HZ3 LYS B   1       5.565  84.572  70.378  1.00  0.00     0.274 HD
ATOM     25  HZ2 LYS B   1       6.044  84.259  71.953  1.00  0.00     0.274 HD
ATOM     26  HZ1 LYS B   1       4.722  83.493  71.358  1.00  0.00     0.274 HD
ENDBRANCH  22  23
ENDBRANCH  21  22
ENDBRANCH  20  21
ENDBRANCH  19  20
ENDBRANCH  16  19
ENDBRANCH  14  16
ENDBRANCH  11  12
BRANCH  11  27
ATOM     27  CB  CYS B   2       6.598  87.954  67.779  1.00  0.00     0.105 C 
BRANCH  27  28
ATOM     28  SG  CYS B   2       5.482  88.931  66.747  1.00  0.00    -0.180 SA
ATOM     29  HG  CYS B   2       4.481  89.005  67.621  1.00  0.00     0.101 HD
ENDBRANCH  27  28
ENDBRANCH  11  27
ENDBRANCH   8  11
ENDBRANCH   6   7
BRANCH   6  30
ATOM     30  CB  ASN B   3      11.042  89.934  65.587  1.00  0.00     0.137 C 
BRANCH  30  31
ATOM     31  CG  ASN B   3      12.375  90.689  65.567  1.00  0.00     0.217 C 
ATOM     32  OD1 ASN B   3      13.375  90.233  65.032  1.00  0.00    -0.274 OA
ATOM     33  ND2 ASN B   3      12.451  91.848  66.165  1.00  0.00    -0.370 N 
ATOM     34 2HD2 ASN B   3      11.627  92.158  66.679  1.00  0.00     0.159 HD
ATOM     35 1HD2 ASN B   3      13.413  92.192  66.226  1.00  0.00     0.159 HD
ENDBRANCH  30  31
ENDBRANCH   6  30
ENDBRANCH   4   6
ENDBRANCH   1   2
BRANCH   1  36
ATOM     36  CB  GLU B   4       9.305  93.479  62.945  1.00  0.00     0.045 C 
BRANCH  36  37
ATOM     37  CG  GLU B   4      10.273  94.084  63.948  1.00  0.00     0.116 C 
BRANCH  37  38
ATOM     38  CD  GLU B   4      11.628  94.397  63.341  1.00  0.00     0.172 C 
ATOM     39  OE1 GLU B   4      12.582  93.632  63.595  1.00  0.00    -0.648 OA
ATOM     40  OE2 GLU B   4      11.733  95.405  62.613  1.00  0.00    -0.648 OA
ENDBRANCH  37  38
ENDBRANCH  36  37
ENDBRANCH   1  36
BRANCH   1  41
ATOM     41  C   GLU B   4       7.716  91.623  62.423  1.00  0.00     0.241 C 
ATOM     42  O   GLU B   4       7.142  92.218  61.511  1.00  0.00    -0.271 OA
ATOM     43  N   THR B   5       7.771  90.296  62.502  1.00  7.70    -0.344 N 
ATOM     44  H   THR B   5       8.244  89.884  63.256  1.00  0.23     0.163 HD
BRANCH  43  45
ATOM     45  CA  THR B   5       7.147  89.437  61.501  1.00  7.88     0.205 C 
BRANCH  45  46
ATOM     46  CB  THR B   5       7.811  88.059  61.497  1.00  4.05     0.146 C 
ATOM     47  CG2 THR B   5       7.082  87.047  60.640  1.00  3.72     0.042 C 
BRANCH  46  48
ATOM     48  OG1 THR B   5       9.142  88.146  61.019  1.00  7.31    -0.393 OA
ATOM     49  HG1 THR B   5       9.427  87.284  60.707  1.00  0.23     0.210 HD
ENDBRANCH  46  48
ENDBRANCH  45  46
BRANCH  45  50
ATOM     50  C   THR B   5       5.653  89.293  61.772  1.00  7.05     0.243 C 
ATOM     51  N   TRP B   6       5.311  88.485  62.769  1.00  0.00    -0.346 N 
ATOM     52  H   TRP B   6       6.013  88.027  63.276  1.00  0.23     0.163 HD
ATOM     53  O   THR B   5       4.828  89.901  61.090  1.00  6.06    -0.271 OA
BRANCH  51  54
ATOM     54  CA  TRP B   6       3.916  88.260  63.125  1.00  0.00     0.181 C 
BRANCH  54  55
ATOM     55  CB  TRP B   6       3.101  89.535  62.900  1.00  0.00     0.075 C 
BRANCH  55  56
ATOM     56  CG  TRP B   6       3.107  90.449  64.087  1.00  0.00    -0.028 A 
ATOM     57  CD2 TRP B   6       2.137  90.489  65.141  1.00  0.00    -0.002 A 
ATOM     58  CE2 TRP B   6       2.544  91.491  66.043  1.00  0.00     0.042 A 
ATOM     59  CE3 TRP B   6       0.965  89.778  65.408  1.00  0.00     0.014 A 
ATOM     60  CZ2 TRP B   6       1.820  91.795  67.192  1.00  0.00     0.030 A 
ATOM     61  NE1 TRP B   6       3.707  92.033  65.560  1.00  0.00    -0.365 N 
ATOM     62  CH2 TRP B   6       0.676  91.084  67.430  1.00  0.00     0.002 A 
ATOM     63  CZ3 TRP B   6       0.247  90.082  66.551  1.00  0.00     0.001 A 
ATOM     64  HE1 TRP B   6       4.220  92.753  65.984  1.00  0.23     0.165 HD
ATOM     65  CD1 TRP B   6       4.038  91.401  64.386  1.00  0.00     0.096 A 
ENDBRANCH  55  56
ENDBRANCH  54  55
BRANCH  54  66
ATOM     66  C   TRP B   6       3.325  87.109  62.316  1.00  0.00     0.241 C 
ATOM     67  N   VAL B   7       2.744  86.141  63.017  1.00  6.11    -0.344 N 
ATOM     68  H   VAL B   7       2.720  86.207  63.994  1.00  0.23     0.163 HD
ATOM     69  O   TRP B   6       3.398  87.099  61.087  1.00  0.00    -0.271 OA
BRANCH  67  70
ATOM     70  CA  VAL B   7       2.143  84.982  62.369  1.00  5.65     0.189 C 
BRANCH  70  71
ATOM     71  CB  VAL B   7       2.306  83.714  63.231  1.00  1.15     0.010 C 
ATOM     72  CG1 VAL B   7       3.636  83.036  62.936  1.00  4.96     0.012 C 
ATOM     73  CG2 VAL B   7       2.189  84.051  64.710  1.00  9.83     0.012 C 
ENDBRANCH  70  71
BRANCH  70  74
ATOM     74  C   VAL B   7       0.659  85.211  62.096  1.00  4.44     0.197 C 
ATOM     75  OXT VAL B   7       0.169  86.322  62.384  1.00  0.00    -0.646 OA
ATOM     76  O   VAL B   7       0.001  84.276  61.594  1.00  0.00    -0.646 OA
ENDBRANCH  70  74
ENDBRANCH  67  70
ENDBRANCH  54  66
ENDBRANCH  51  54
ENDBRANCH  45  50
ENDBRANCH  43  45
ENDBRANCH   1  41
TORSDOF 31
ENDMDL
MODEL 7
REMARK VINA RESULT:      -3.9      3.045      9.305
REMARK  31 active torsions:
REMARK  status: ('A' for Active; 'I' for Inactive)
REMARK    1  A    between atoms: N_1  and  CA_2 
REMARK    2  A    between atoms: CA_2  and  CB_5 
REMARK    3  A    between atoms: CA_2  and  C_3 
REMARK       I    between atoms: C_3  and  N_14 
REMARK    4  A    between atoms: CB_5  and  CG_6 
REMARK    5  A    between atoms: CG_6  and  CD_7 
REMARK    6  A    between atoms: CD_7  and  CE_8 
REMARK    7  A    between atoms: CE_8  and  NZ_9 
REMARK    8  A    between atoms: N_14  and  CA_15 
REMARK    9  A    between atoms: CA_15  and  C_16 
REMARK   10  A    between atoms: CA_15  and  CB_18 
REMARK       I    between atoms: C_16  and  N_22 
REMARK   11  A    between atoms: CB_18  and  SG_19 
REMARK   12  A    between atoms: N_22  and  CA_23 
REMARK   13  A    between atoms: CA_23  and  CB_26 
REMARK   14  A    between atoms: CA_23  and  C_24 
REMARK       I    between atoms: C_24  and  N_39 
REMARK   15  A    between atoms: CB_26  and  CG_27 
REMARK       I    between atoms: CG_27  and  ND2_28 
REMARK   16  A    between atoms: CA_33  and  N_39 
REMARK   17  A    between atoms: CA_33  and  CB_35 
REMARK   18  A    between atoms: CA_33  and  C_34 
REMARK       I    between atoms: C_34  and  N_49 
REMARK   19  A    between atoms: CB_35  and  CG_36 
REMARK   20  A    between atoms: CG_36  and  CD_37 
REMARK   21  A    between atoms: CA_43  and  N_49 
REMARK   22  A    between atoms: CA_43  and  CB_45 
REMARK   23  A    between atoms: CA_43  and  C_44 
REMARK       I    between atoms: C_44  and  N_65 
REMARK   24  A    between atoms: CB_45  and  OG1_51 
REMARK   25  A    between atoms: CA_52  and  CB_54 
REMARK   26  A    between atoms: CA_52  and  N_65 
REMARK   27  A    between atoms: CA_52  and  C_53 
REMARK       I    between atoms: C_53  and  N_74 
REMARK   28  A    between atoms: CB_54  and  CG_55 
REMARK   29  A    between atoms: CA_68  and  N_74 
REMARK   30  A    between atoms: CA_68  and  CB_70 
REMARK   31  A    between atoms: CA_68  and  C_69 
ROOT
ATOM      1  CA  GLU B   4       8.614  92.598  63.393  1.00  0.00     0.177 C 
ENDROOT
BRANCH   1   2
ATOM      2  N   GLU B   4       9.299  91.476  64.032  1.00  0.00    -0.346 N 
ATOM      3  H   GLU B   4       9.675  90.764  63.473  1.00  0.23     0.163 HD
ATOM      4  C   ASN B   3       9.416  91.395  65.353  1.00  0.00     0.241 C 
ATOM      5  O   ASN B   3       8.973  92.262  66.112  1.00  0.00    -0.271 OA
BRANCH   4   6
ATOM      6  CA  ASN B   3      10.144  90.194  65.909  1.00  0.00     0.185 C 
BRANCH   6   7
ATOM      7  N   ASN B   3       9.213  89.269  66.551  1.00  0.00    -0.346 N 
ATOM      8  C   CYS B   2       8.083  88.854  65.948  1.00  0.00     0.241 C 
ATOM      9  O   CYS B   2       7.765  89.233  64.825  1.00  0.00    -0.271 OA
ATOM     10  H   ASN B   3       9.418  88.940  67.454  1.00  0.00     0.163 HD
BRANCH   8  11
ATOM     11  CA  CYS B   2       7.241  87.865  66.721  1.00  0.00     0.185 C 
BRANCH  11  12
ATOM     12  N   CYS B   2       8.082  86.913  67.441  1.00  0.00    -0.345 N 
ATOM     13  H   CYS B   2       8.355  86.081  66.996  1.00  0.00     0.163 HD
ATOM     14  C   LYS B   1       8.489  87.147  68.693  1.00  0.00     0.254 C 
ATOM     15  O   LYS B   1       8.221  88.198  69.285  1.00  0.00    -0.271 OA
BRANCH  14  16
ATOM     16  CA  LYS B   1       9.339  86.073  69.330  1.00  0.00     0.350 C 
BRANCH  16  17
ATOM     17  N   LYS B   1      10.632  86.609  69.748  1.00  0.00     0.312 N 
ATOM     18  H   LYS B   1      10.683  87.647  69.506  1.00  0.00     0.359 HD
ENDBRANCH  16  17
BRANCH  16  19
ATOM     19  CB  LYS B   1       8.618  85.448  70.555  1.00  0.00     0.048 C 
BRANCH  19  20
ATOM     20  CG  LYS B   1       8.503  83.905  70.481  1.00  0.00     0.004 C 
BRANCH  20  21
ATOM     21  CD  LYS B   1       7.532  83.381  69.419  1.00  0.00     0.027 C 
BRANCH  21  22
ATOM     22  CE  LYS B   1       7.336  81.872  69.614  1.00  0.00     0.229 C 
BRANCH  22  23
ATOM     23  NZ  LYS B   1       7.212  81.220  68.298  1.00  0.00    -0.079 N 
ATOM     24  HZ3 LYS B   1       6.569  80.451  68.422  1.00  0.00     0.274 HD
ATOM     25  HZ2 LYS B   1       8.120  80.886  67.960  1.00  0.00     0.274 HD
ATOM     26  HZ1 LYS B   1       6.873  81.887  67.594  1.00  0.00     0.274 HD
ENDBRANCH  22  23
ENDBRANCH  21  22
ENDBRANCH  20  21
ENDBRANCH  19  20
ENDBRANCH  16  19
ENDBRANCH  14  16
ENDBRANCH  11  12
BRANCH  11  27
ATOM     27  CB  CYS B   2       6.304  88.554  67.733  1.00  0.00     0.105 C 
BRANCH  27  28
ATOM     28  SG  CYS B   2       4.808  87.573  67.990  1.00  0.00    -0.180 SA
ATOM     29  HG  CYS B   2       5.330  86.395  67.656  1.00  0.00     0.101 HD
ENDBRANCH  27  28
ENDBRANCH  11  27
ENDBRANCH   8  11
ENDBRANCH   6   7
BRANCH   6  30
ATOM     30  CB  ASN B   3      10.921  89.452  64.784  1.00  0.00     0.137 C 
BRANCH  30  31
ATOM     31  CG  ASN B   3      12.321  89.974  64.447  1.00  0.00     0.217 C 
ATOM     32  OD1 ASN B   3      12.640  90.295  63.311  1.00  0.00    -0.274 OA
ATOM     33  ND2 ASN B   3      13.210  90.055  65.400  1.00  0.00    -0.370 N 
ATOM     34 2HD2 ASN B   3      12.940  89.695  66.314  1.00  0.00     0.159 HD
ATOM     35 1HD2 ASN B   3      14.146  90.266  65.043  1.00  0.00     0.159 HD
ENDBRANCH  30  31
ENDBRANCH   6  30
ENDBRANCH   4   6
ENDBRANCH   1   2
BRANCH   1  36
ATOM     36  CB  GLU B   4       9.622  93.649  62.929  1.00  0.00     0.045 C 
BRANCH  36  37
ATOM     37  CG  GLU B   4      10.428  94.257  64.065  1.00  0.00     0.116 C 
BRANCH  37  38
ATOM     38  CD  GLU B   4      11.922  94.230  63.804  1.00  0.00     0.172 C 
ATOM     39  OE1 GLU B   4      12.628  93.448  64.474  1.00  0.00    -0.648 OA
ATOM     40  OE2 GLU B   4      12.385  94.991  62.929  1.00  0.00    -0.648 OA
ENDBRANCH  37  38
ENDBRANCH  36  37
ENDBRANCH   1  36
BRANCH   1  41
ATOM     41  C   GLU B   4       7.783  92.121  62.205  1.00  0.00     0.241 C 
ATOM     42  O   GLU B   4       7.240  92.930  61.451  1.00  0.00    -0.271 OA
ATOM     43  N   THR B   5       7.686  90.804  62.048  1.00  7.70    -0.344 N 
ATOM     44  H   THR B   5       8.142  90.215  62.685  1.00  0.23     0.163 HD
BRANCH  43  45
ATOM     45  CA  THR B   5       6.920  90.211  60.956  1.00  7.88     0.205 C 
BRANCH  45  46
ATOM     46  CB  THR B   5       7.564  88.898  60.509  1.00  4.05     0.146 C 
ATOM     47  CG2 THR B   5       8.033  88.039  61.662  1.00  3.72     0.042 C 
BRANCH  46  48
ATOM     48  OG1 THR B   5       6.652  88.129  59.744  1.00  7.31    -0.393 OA
ATOM     49  HG1 THR B   5       5.795  88.127  60.175  1.00  0.23     0.210 HD
ENDBRANCH  46  48
ENDBRANCH  45  46
BRANCH  45  50
ATOM     50  C   THR B   5       5.477  89.964  61.385  1.00  7.05     0.243 C 
ATOM     51  N   TRP B   6       5.302  89.476  62.608  1.00  0.00    -0.346 N 
ATOM     52  H   TRP B   6       6.086  89.301  63.170  1.00  0.23     0.163 HD
ATOM     53  O   THR B   5       4.543  90.207  60.622  1.00  6.06    -0.271 OA
BRANCH  51  54
ATOM     54  CA  TRP B   6       3.973  89.193  63.134  1.00  0.00     0.181 C 
BRANCH  54  55
ATOM     55  CB  TRP B   6       3.172  90.488  63.271  1.00  0.00     0.075 C 
BRANCH  55  56
ATOM     56  CG  TRP B   6       4.011  91.650  63.710  1.00  0.00    -0.028 A 
ATOM     57  CD2 TRP B   6       4.702  91.785  64.958  1.00  0.00    -0.002 A 
ATOM     58  CE2 TRP B   6       5.364  93.027  64.935  1.00  0.00     0.042 A 
ATOM     59  CE3 TRP B   6       4.824  90.976  66.091  1.00  0.00     0.014 A 
ATOM     60  CZ2 TRP B   6       6.137  93.477  66.002  1.00  0.00     0.030 A 
ATOM     61  NE1 TRP B   6       5.088  93.619  63.730  1.00  0.00    -0.365 N 
ATOM     62  CH2 TRP B   6       6.239  92.666  67.099  1.00  0.00     0.002 A 
ATOM     63  CZ3 TRP B   6       5.592  91.426  67.150  1.00  0.00     0.001 A 
ATOM     64  HE1 TRP B   6       5.417  94.494  63.436  1.00  0.23     0.165 HD
ATOM     65  CD1 TRP B   6       4.275  92.785  63.001  1.00  0.00     0.096 A 
ENDBRANCH  55  56
ENDBRANCH  54  55
BRANCH  54  66
ATOM     66  C   TRP B   6       3.230  88.208  62.237  1.00  0.00     0.241 C 
ATOM     67  N   VAL B   7       3.684  86.958  62.241  1.00  6.11    -0.344 N 
ATOM     68  H   VAL B   7       4.452  86.730  62.804  1.00  0.23     0.163 HD
ATOM     69  O   TRP B   6       2.272  88.574  61.556  1.00  0.00    -0.271 OA
BRANCH  67  70
ATOM     70  CA  VAL B   7       3.067  85.918  61.427  1.00  5.65     0.189 C 
BRANCH  70  71
ATOM     71  CB  VAL B   7       4.065  85.351  60.398  1.00  1.15     0.010 C 
ATOM     72  CG1 VAL B   7       4.021  86.161  59.110  1.00  4.96     0.012 C 
ATOM     73  CG2 VAL B   7       5.474  85.327  60.972  1.00  9.83     0.012 C 
ENDBRANCH  70  71
BRANCH  70  74
ATOM     74  C   VAL B   7       2.544  84.777  62.295  1.00  4.44     0.197 C 
ATOM     75  OXT VAL B   7       1.983  83.815  61.732  1.00  0.00    -0.646 OA
ATOM     76  O   VAL B   7       2.702  84.857  63.531  1.00  0.00    -0.646 OA
ENDBRANCH  70  74
ENDBRANCH  67  70
ENDBRANCH  54  66
ENDBRANCH  51  54
ENDBRANCH  45  50
ENDBRANCH  43  45
ENDBRANCH   1  41
TORSDOF 31
ENDMDL
MODEL 8
REMARK VINA RESULT:      -3.9      2.882      9.605
REMARK  31 active torsions:
REMARK  status: ('A' for Active; 'I' for Inactive)
REMARK    1  A    between atoms: N_1  and  CA_2 
REMARK    2  A    between atoms: CA_2  and  CB_5 
REMARK    3  A    between atoms: CA_2  and  C_3 
REMARK       I    between atoms: C_3  and  N_14 
REMARK    4  A    between atoms: CB_5  and  CG_6 
REMARK    5  A    between atoms: CG_6  and  CD_7 
REMARK    6  A    between atoms: CD_7  and  CE_8 
REMARK    7  A    between atoms: CE_8  and  NZ_9 
REMARK    8  A    between atoms: N_14  and  CA_15 
REMARK    9  A    between atoms: CA_15  and  C_16 
REMARK   10  A    between atoms: CA_15  and  CB_18 
REMARK       I    between atoms: C_16  and  N_22 
REMARK   11  A    between atoms: CB_18  and  SG_19 
REMARK   12  A    between atoms: N_22  and  CA_23 
REMARK   13  A    between atoms: CA_23  and  CB_26 
REMARK   14  A    between atoms: CA_23  and  C_24 
REMARK       I    between atoms: C_24  and  N_39 
REMARK   15  A    between atoms: CB_26  and  CG_27 
REMARK       I    between atoms: CG_27  and  ND2_28 
REMARK   16  A    between atoms: CA_33  and  N_39 
REMARK   17  A    between atoms: CA_33  and  CB_35 
REMARK   18  A    between atoms: CA_33  and  C_34 
REMARK       I    between atoms: C_34  and  N_49 
REMARK   19  A    between atoms: CB_35  and  CG_36 
REMARK   20  A    between atoms: CG_36  and  CD_37 
REMARK   21  A    between atoms: CA_43  and  N_49 
REMARK   22  A    between atoms: CA_43  and  CB_45 
REMARK   23  A    between atoms: CA_43  and  C_44 
REMARK       I    between atoms: C_44  and  N_65 
REMARK   24  A    between atoms: CB_45  and  OG1_51 
REMARK   25  A    between atoms: CA_52  and  CB_54 
REMARK   26  A    between atoms: CA_52  and  N_65 
REMARK   27  A    between atoms: CA_52  and  C_53 
REMARK       I    between atoms: C_53  and  N_74 
REMARK   28  A    between atoms: CB_54  and  CG_55 
REMARK   29  A    between atoms: CA_68  and  N_74 
REMARK   30  A    between atoms: CA_68  and  CB_70 
REMARK   31  A    between atoms: CA_68  and  C_69 
ROOT
ATOM      1  CA  GLU B   4       8.199  92.392  63.529  1.00  0.00     0.177 C 
ENDROOT
BRANCH   1   2
ATOM      2  N   GLU B   4       9.064  91.562  64.365  1.00  0.00    -0.346 N 
ATOM      3  H   GLU B   4       9.706  90.957  63.937  1.00  0.23     0.163 HD
ATOM      4  C   ASN B   3       8.991  91.599  65.691  1.00  0.00     0.241 C 
ATOM      5  O   ASN B   3       8.211  92.343  66.292  1.00  0.00    -0.271 OA
BRANCH   4   6
ATOM      6  CA  ASN B   3       9.931  90.700  66.459  1.00  0.00     0.185 C 
BRANCH   6   7
ATOM      7  N   ASN B   3       9.240  89.505  66.936  1.00  0.00    -0.346 N 
ATOM      8  C   CYS B   2       8.846  88.523  66.103  1.00  0.00     0.241 C 
ATOM      9  O   CYS B   2       9.041  88.576  64.892  1.00  0.00    -0.271 OA
ATOM     10  H   ASN B   3       9.055  89.415  67.897  1.00  0.00     0.163 HD
BRANCH   8  11
ATOM     11  CA  CYS B   2       8.179  87.330  66.749  1.00  0.00     0.185 C 
BRANCH  11  12
ATOM     12  N   CYS B   2       9.049  86.724  67.753  1.00  0.00    -0.345 N 
ATOM     13  H   CYS B   2       9.713  86.055  67.473  1.00  0.00     0.163 HD
ATOM     14  C   LYS B   1       8.966  87.058  69.044  1.00  0.00     0.254 C 
ATOM     15  O   LYS B   1       8.188  87.930  69.447  1.00  0.00    -0.271 OA
BRANCH  14  16
ATOM     16  CA  LYS B   1       9.911  86.344  69.982  1.00  0.00     0.350 C 
BRANCH  16  17
ATOM     17  N   LYS B   1      10.884  87.272  70.551  1.00  0.00     0.312 N 
ATOM     18  H   LYS B   1      11.730  87.345  69.904  1.00  0.00     0.359 HD
ENDBRANCH  16  17
BRANCH  16  19
ATOM     19  CB  LYS B   1       9.131  85.644  71.128  1.00  0.00     0.048 C 
BRANCH  19  20
ATOM     20  CG  LYS B   1       8.864  84.141  70.863  1.00  0.00     0.004 C 
BRANCH  20  21
ATOM     21  CD  LYS B   1       7.833  83.854  69.768  1.00  0.00     0.027 C 
BRANCH  21  22
ATOM     22  CE  LYS B   1       6.442  84.277  70.259  1.00  0.00     0.229 C 
BRANCH  22  23
ATOM     23  NZ  LYS B   1       5.984  83.339  71.299  1.00  0.00    -0.079 N 
ATOM     24  HZ3 LYS B   1       6.551  83.522  72.116  1.00  0.00     0.274 HD
ATOM     25  HZ2 LYS B   1       6.086  82.365  70.995  1.00  0.00     0.274 HD
ATOM     26  HZ1 LYS B   1       4.985  83.474  71.495  1.00  0.00     0.274 HD
ENDBRANCH  22  23
ENDBRANCH  21  22
ENDBRANCH  20  21
ENDBRANCH  19  20
ENDBRANCH  16  19
ENDBRANCH  14  16
ENDBRANCH  11  12
BRANCH  11  27
ATOM     27  CB  CYS B   2       6.840  87.696  67.418  1.00  0.00     0.105 C 
BRANCH  27  28
ATOM     28  SG  CYS B   2       5.937  88.906  66.425  1.00  0.00    -0.180 SA
ATOM     29  HG  CYS B   2       4.715  88.464  66.708  1.00  0.00     0.101 HD
ENDBRANCH  27  28
ENDBRANCH  11  27
ENDBRANCH   8  11
ENDBRANCH   6   7
BRANCH   6  30
ATOM     30  CB  ASN B   3      11.140  90.282  65.573  1.00  0.00     0.137 C 
BRANCH  30  31
ATOM     31  CG  ASN B   3      12.488  90.942  65.882  1.00  0.00     0.217 C 
ATOM     32  OD1 ASN B   3      13.451  90.302  66.278  1.00  0.00    -0.274 OA
ATOM     33  ND2 ASN B   3      12.603  92.236  65.740  1.00  0.00    -0.370 N 
ATOM     34 2HD2 ASN B   3      11.758  92.750  65.497  1.00  0.00     0.159 HD
ATOM     35 1HD2 ASN B   3      13.486  92.591  66.115  1.00  0.00     0.159 HD
ENDBRANCH  30  31
ENDBRANCH   6  30
ENDBRANCH   4   6
ENDBRANCH   1   2
BRANCH   1  36
ATOM     36  CB  GLU B   4       8.960  93.616  63.019  1.00  0.00     0.045 C 
BRANCH  36  37
ATOM     37  CG  GLU B   4      10.062  94.077  63.959  1.00  0.00     0.116 C 
BRANCH  37  38
ATOM     38  CD  GLU B   4      11.270  94.626  63.223  1.00  0.00     0.172 C 
ATOM     39  OE1 GLU B   4      11.082  95.250  62.159  1.00  0.00    -0.648 OA
ATOM     40  OE2 GLU B   4      12.402  94.430  63.712  1.00  0.00    -0.648 OA
ENDBRANCH  37  38
ENDBRANCH  36  37
ENDBRANCH   1  36
BRANCH   1  41
ATOM     41  C   GLU B   4       7.657  91.594  62.347  1.00  0.00     0.241 C 
ATOM     42  O   GLU B   4       7.423  92.143  61.270  1.00  0.00    -0.271 OA
ATOM     43  N   THR B   5       7.456  90.297  62.558  1.00  7.70    -0.344 N 
ATOM     44  H   THR B   5       7.661  89.922  63.441  1.00  0.23     0.163 HD
BRANCH  43  45
ATOM     45  CA  THR B   5       6.937  89.415  61.516  1.00  7.88     0.205 C 
BRANCH  45  46
ATOM     46  CB  THR B   5       7.629  88.052  61.581  1.00  4.05     0.146 C 
ATOM     47  CG2 THR B   5       7.742  87.375  60.233  1.00  3.72     0.042 C 
BRANCH  46  48
ATOM     48  OG1 THR B   5       8.937  88.180  62.109  1.00  7.31    -0.393 OA
ATOM     49  HG1 THR B   5       9.186  87.364  62.548  1.00  0.23     0.210 HD
ENDBRANCH  46  48
ENDBRANCH  45  46
BRANCH  45  50
ATOM     50  C   THR B   5       5.429  89.241  61.662  1.00  7.05     0.243 C 
ATOM     51  N   TRP B   6       5.023  88.363  62.572  1.00  0.00    -0.346 N 
ATOM     52  H   TRP B   6       5.691  87.877  63.099  1.00  0.23     0.163 HD
ATOM     53  O   THR B   5       4.650  89.887  60.961  1.00  6.06    -0.271 OA
BRANCH  51  54
ATOM     54  CA  TRP B   6       3.608  88.102  62.804  1.00  0.00     0.181 C 
BRANCH  54  55
ATOM     55  CB  TRP B   6       2.830  89.418  62.849  1.00  0.00     0.075 C 
BRANCH  55  56
ATOM     56  CG  TRP B   6       3.037  90.176  64.125  1.00  0.00    -0.028 A 
ATOM     57  CD2 TRP B   6       3.787  91.385  64.291  1.00  0.00    -0.002 A 
ATOM     58  CE2 TRP B   6       3.706  91.742  65.650  1.00  0.00     0.042 A 
ATOM     59  CE3 TRP B   6       4.520  92.198  63.422  1.00  0.00     0.014 A 
ATOM     60  CZ2 TRP B   6       4.329  92.879  66.158  1.00  0.00     0.030 A 
ATOM     61  NE1 TRP B   6       2.942  90.795  66.281  1.00  0.00    -0.365 N 
ATOM     62  CH2 TRP B   6       5.040  93.658  65.287  1.00  0.00     0.002 A 
ATOM     63  CZ3 TRP B   6       5.138  93.327  63.930  1.00  0.00     0.001 A 
ATOM     64  HE1 TRP B   6       2.716  90.787  67.234  1.00  0.23     0.165 HD
ATOM     65  CD1 TRP B   6       2.545  89.858  65.357  1.00  0.00     0.096 A 
ENDBRANCH  55  56
ENDBRANCH  54  55
BRANCH  54  66
ATOM     66  C   TRP B   6       3.037  87.190  61.723  1.00  0.00     0.241 C 
ATOM     67  N   VAL B   7       2.604  87.792  60.619  1.00  6.11    -0.344 N 
ATOM     68  H   VAL B   7       2.670  88.767  60.551  1.00  0.23     0.163 HD
ATOM     69  O   TRP B   6       2.988  85.971  61.887  1.00  0.00    -0.271 OA
BRANCH  67  70
ATOM     70  CA  VAL B   7       2.033  87.039  59.510  1.00  5.65     0.189 C 
BRANCH  70  71
ATOM     71  CB  VAL B   7       1.415  87.980  58.457  1.00  1.15     0.010 C 
ATOM     72  CG1 VAL B   7      -0.062  87.671  58.265  1.00  4.96     0.012 C 
ATOM     73  CG2 VAL B   7       1.615  89.435  58.853  1.00  9.83     0.012 C 
ENDBRANCH  70  71
BRANCH  70  74
ATOM     74  C   VAL B   7       3.086  86.162  58.839  1.00  4.44     0.197 C 
ATOM     75  OXT VAL B   7       2.726  85.068  58.360  1.00  0.00    -0.646 OA
ATOM     76  O   VAL B   7       4.262  86.580  58.799  1.00  0.00    -0.646 OA
ENDBRANCH  70  74
ENDBRANCH  67  70
ENDBRANCH  54  66
ENDBRANCH  51  54
ENDBRANCH  45  50
ENDBRANCH  43  45
ENDBRANCH   1  41
TORSDOF 31
ENDMDL
