MODEL 1
REMARK VINA RESULT:      -7.3      0.000      0.000
REMARK  28 active torsions:
REMARK  status: ('A' for Active; 'I' for Inactive)
REMARK    1  A    between atoms: N_1  and  CA_2 
REMARK    2  A    between atoms: CA_2  and  C_3 
REMARK    3  A    between atoms: CA_2  and  CB_5 
REMARK       I    between atoms: C_3  and  N_14 
REMARK    4  A    between atoms: CB_5  and  CG_6 
REMARK    5  A    between atoms: CG_6  and  CD_7 
REMARK    6  A    between atoms: CD_7  and  CE_8 
REMARK    7  A    between atoms: CE_8  and  NZ_9 
REMARK    8  A    between atoms: N_14  and  CA_15 
REMARK    9  A    between atoms: CA_15  and  C_16 
REMARK   10  A    between atoms: CA_15  and  CB_18 
REMARK   11  A    between atoms: CB_18  and  SG_19 
REMARK   12  A    between atoms: CA_23  and  C_24 
REMARK       I    between atoms: C_24  and  N_35 
REMARK   13  A    between atoms: CA_29  and  N_35 
REMARK   14  A    between atoms: CA_29  and  CB_31 
REMARK   15  A    between atoms: CA_29  and  C_30 
REMARK       I    between atoms: C_30  and  N_45 
REMARK   16  A    between atoms: CB_31  and  CG_32 
REMARK   17  A    between atoms: CG_32  and  CD_33 
REMARK   18  A    between atoms: CA_39  and  N_45 
REMARK   19  A    between atoms: CA_39  and  CB_41 
REMARK   20  A    between atoms: CA_39  and  C_40 
REMARK       I    between atoms: C_40  and  N_61 
REMARK   21  A    between atoms: CB_41  and  OG1_47 
REMARK   22  A    between atoms: CA_48  and  CB_50 
REMARK   23  A    between atoms: CA_48  and  N_61 
REMARK   24  A    between atoms: CA_48  and  C_49 
REMARK       I    between atoms: C_49  and  N_70 
REMARK   25  A    between atoms: CB_50  and  CG_51 
REMARK   26  A    between atoms: CA_64  and  N_70 
REMARK   27  A    between atoms: CA_64  and  CB_66 
REMARK   28  A    between atoms: CA_64  and  C_65 
ROOT
ATOM      1  CA  GLU B   4       8.621  89.181  63.130  1.00  0.00     0.177 C 
ENDROOT
BRANCH   1   2
ATOM      2  N   GLU B   4       8.935  90.422  63.835  1.00  0.00    -0.346 N 
ATOM      3  H   GLU B   4       8.212  91.046  64.051  1.00  0.23     0.163 HD
ATOM      4  C   PRO B   3      10.184  90.696  64.150  1.00  0.00     0.236 C 
ATOM      5  O   PRO B   3      11.137  89.982  63.946  1.00  0.00    -0.272 OA
BRANCH   4   6
ATOM      6  CA  PRO B   3      10.430  92.016  64.900  1.00  0.00     0.157 C 
ATOM      7  N   PRO B   3      10.903  93.061  64.004  1.00  0.00    -0.250 NA
ATOM      8  C   CYS B   2      11.450  94.225  64.394  1.00  0.00     0.276 A 
ATOM      9  CD  PRO B   3      10.158  94.264  64.008  1.00  0.00     0.102 A 
ATOM     10  O   CYS B   2      11.451  94.536  65.582  1.00  0.00    -0.301 OA
ATOM     11  CG  PRO B   3       9.379  94.149  65.321  1.00  0.00     0.024 C 
ATOM     12  CB  PRO B   3       9.143  92.638  65.460  1.00  0.00     0.031 C 
BRANCH   8  13
ATOM     13  CA  CYS B   2      12.023  95.136  63.333  1.00  0.00     0.157 C 
BRANCH  13  14
ATOM     14  N   CYS B   2      13.217  94.549  62.730  1.00  0.00    -0.347 N 
ATOM     15  H   CYS B   2      13.122  93.774  62.133  1.00  0.00     0.163 HD
ATOM     16  C   LYS B   1      14.435  95.041  62.971  1.00  0.00     0.254 C 
ATOM     17  O   LYS B   1      14.612  96.045  63.669  1.00  0.00    -0.271 OA
BRANCH  16  18
ATOM     18  CA  LYS B   1      15.587  94.330  62.300  1.00  0.00     0.350 C 
BRANCH  18  19
ATOM     19  CB  LYS B   1      15.542  92.805  62.588  1.00  0.00     0.048 C 
BRANCH  19  20
ATOM     20  CG  LYS B   1      15.336  92.468  64.086  1.00  0.00     0.004 C 
BRANCH  20  21
ATOM     21  CD  LYS B   1      14.243  91.433  64.370  1.00  0.00     0.027 C 
BRANCH  21  22
ATOM     22  CE  LYS B   1      13.876  91.480  65.859  1.00  0.00     0.229 C 
BRANCH  22  23
ATOM     23  NZ  LYS B   1      13.259  90.202  66.252  1.00  0.00    -0.079 N 
ATOM     24  HZ3 LYS B   1      13.702  89.488  65.690  1.00  0.00     0.274 HD
ATOM     25  HZ2 LYS B   1      12.246  90.212  66.097  1.00  0.00     0.274 HD
ATOM     26  HZ1 LYS B   1      13.392  90.028  67.256  1.00  0.00     0.274 HD
ENDBRANCH  22  23
ENDBRANCH  21  22
ENDBRANCH  20  21
ENDBRANCH  19  20
ENDBRANCH  18  19
BRANCH  18  27
ATOM     27  N   LYS B   1      16.867  94.872  62.746  1.00  0.00     0.312 N 
ATOM     28  H   LYS B   1      16.719  95.464  63.621  1.00  0.00     0.359 HD
ENDBRANCH  18  27
ENDBRANCH  16  18
ENDBRANCH  13  14
BRANCH  13  29
ATOM     29  CB  CYS B   2      11.011  95.446  62.214  1.00  0.00     0.103 C 
BRANCH  29  30
ATOM     30  SG  CYS B   2      11.726  96.577  60.999  1.00  0.00    -0.180 SA
ATOM     31  HG  CYS B   2      10.996  97.641  61.323  1.00  0.00     0.101 HD
ENDBRANCH  29  30
ENDBRANCH  13  29
ENDBRANCH   8  13
ENDBRANCH   4   6
ENDBRANCH   1   2
BRANCH   1  32
ATOM     32  CB  GLU B   4       7.919  88.195  64.065  1.00  0.00     0.045 C 
BRANCH  32  33
ATOM     33  CG  GLU B   4       8.793  87.730  65.218  1.00  0.00     0.116 C 
BRANCH  33  34
ATOM     34  CD  GLU B   4       8.282  88.198  66.567  1.00  0.00     0.172 C 
ATOM     35  OE2 GLU B   4       8.411  89.404  66.864  1.00  0.00    -0.648 OA
ATOM     36  OE1 GLU B   4       7.753  87.358  67.325  1.00  0.00    -0.648 OA
ENDBRANCH  33  34
ENDBRANCH  32  33
ENDBRANCH   1  32
BRANCH   1  37
ATOM     37  C   GLU B   4       7.739  89.455  61.915  1.00  0.00     0.241 C 
ATOM     38  O   GLU B   4       7.311  90.588  61.690  1.00  0.00    -0.271 OA
ATOM     39  N   THR B   5       7.469  88.410  61.139  1.00  7.70    -0.344 N 
ATOM     40  H   THR B   5       7.840  87.534  61.376  1.00  0.23     0.163 HD
BRANCH  39  41
ATOM     41  CA  THR B   5       6.635  88.528  59.947  1.00  7.88     0.205 C 
BRANCH  41  42
ATOM     42  CB  THR B   5       6.642  87.215  59.162  1.00  4.05     0.146 C 
ATOM     43  CG2 THR B   5       7.017  86.017  60.006  1.00  3.72     0.042 C 
BRANCH  42  44
ATOM     44  OG1 THR B   5       5.367  86.962  58.599  1.00  7.31    -0.393 OA
ATOM     45  HG1 THR B   5       5.431  86.976  57.642  1.00  0.23     0.210 HD
ENDBRANCH  42  44
ENDBRANCH  41  42
BRANCH  41  46
ATOM     46  C   THR B   5       5.205  88.900  60.326  1.00  7.05     0.243 C 
ATOM     47  N   TRP B   6       4.812  88.556  61.548  1.00  0.00    -0.346 N 
ATOM     48  H   TRP B   6       5.440  88.091  62.139  1.00  0.23     0.163 HD
ATOM     49  O   THR B   5       4.473  89.483  59.527  1.00  6.06    -0.271 OA
BRANCH  47  50
ATOM     50  CA  TRP B   6       3.469  88.851  62.029  1.00  0.00     0.181 C 
BRANCH  50  51
ATOM     51  CB  TRP B   6       2.946  87.691  62.878  1.00  0.00     0.075 C 
BRANCH  51  52
ATOM     52  CG  TRP B   6       2.210  86.664  62.073  1.00  0.00    -0.028 A 
ATOM     53  CD2 TRP B   6       2.058  85.275  62.391  1.00  0.00    -0.002 A 
ATOM     54  CE2 TRP B   6       1.290  84.695  61.364  1.00  0.00     0.042 A 
ATOM     55  CE3 TRP B   6       2.498  84.467  63.442  1.00  0.00     0.014 A 
ATOM     56  CZ2 TRP B   6       0.952  83.344  61.361  1.00  0.00     0.030 A 
ATOM     57  NE1 TRP B   6       0.988  85.685  60.465  1.00  0.00    -0.365 N 
ATOM     58  CH2 TRP B   6       1.396  82.575  62.402  1.00  0.00     0.002 A 
ATOM     59  CZ3 TRP B   6       2.162  83.125  63.437  1.00  0.00     0.001 A 
ATOM     60  HE1 TRP B   6       0.462  85.570  59.646  1.00  0.23     0.165 HD
ATOM     61  CD1 TRP B   6       1.545  86.864  60.898  1.00  0.00     0.096 A 
ENDBRANCH  51  52
ENDBRANCH  50  51
BRANCH  50  62
ATOM     62  C   TRP B   6       3.451  90.144  62.837  1.00  0.00     0.241 C 
ATOM     63  N   VAL B   7       4.449  90.991  62.607  1.00  6.11    -0.344 N 
ATOM     64  H   VAL B   7       5.132  90.755  61.946  1.00  0.23     0.163 HD
ATOM     65  O   TRP B   6       2.555  90.367  63.652  1.00  0.00    -0.271 OA
BRANCH  63  66
ATOM     66  CA  VAL B   7       4.554  92.262  63.313  1.00  5.65     0.189 C 
BRANCH  66  67
ATOM     67  CB  VAL B   7       5.629  92.199  64.416  1.00  1.15     0.010 C 
ATOM     68  CG1 VAL B   7       5.414  93.310  65.434  1.00  4.96     0.012 C 
ATOM     69  CG2 VAL B   7       5.625  90.837  65.094  1.00  9.83     0.012 C 
ENDBRANCH  66  67
BRANCH  66  70
ATOM     70  C   VAL B   7       4.890  93.400  62.353  1.00  4.44     0.197 C 
ATOM     71  OXT VAL B   7       6.077  93.542  61.997  1.00  0.00    -0.646 OA
ATOM     72  O   VAL B   7       3.960  94.138  61.966  1.00  0.00    -0.646 OA
ENDBRANCH  66  70
ENDBRANCH  63  66
ENDBRANCH  50  62
ENDBRANCH  47  50
ENDBRANCH  41  46
ENDBRANCH  39  41
ENDBRANCH   1  37
TORSDOF 28
ENDMDL
MODEL 2
REMARK VINA RESULT:      -6.8      2.320      4.425
REMARK  28 active torsions:
REMARK  status: ('A' for Active; 'I' for Inactive)
REMARK    1  A    between atoms: N_1  and  CA_2 
REMARK    2  A    between atoms: CA_2  and  C_3 
REMARK    3  A    between atoms: CA_2  and  CB_5 
REMARK       I    between atoms: C_3  and  N_14 
REMARK    4  A    between atoms: CB_5  and  CG_6 
REMARK    5  A    between atoms: CG_6  and  CD_7 
REMARK    6  A    between atoms: CD_7  and  CE_8 
REMARK    7  A    between atoms: CE_8  and  NZ_9 
REMARK    8  A    between atoms: N_14  and  CA_15 
REMARK    9  A    between atoms: CA_15  and  C_16 
REMARK   10  A    between atoms: CA_15  and  CB_18 
REMARK   11  A    between atoms: CB_18  and  SG_19 
REMARK   12  A    between atoms: CA_23  and  C_24 
REMARK       I    between atoms: C_24  and  N_35 
REMARK   13  A    between atoms: CA_29  and  N_35 
REMARK   14  A    between atoms: CA_29  and  CB_31 
REMARK   15  A    between atoms: CA_29  and  C_30 
REMARK       I    between atoms: C_30  and  N_45 
REMARK   16  A    between atoms: CB_31  and  CG_32 
REMARK   17  A    between atoms: CG_32  and  CD_33 
REMARK   18  A    between atoms: CA_39  and  N_45 
REMARK   19  A    between atoms: CA_39  and  CB_41 
REMARK   20  A    between atoms: CA_39  and  C_40 
REMARK       I    between atoms: C_40  and  N_61 
REMARK   21  A    between atoms: CB_41  and  OG1_47 
REMARK   22  A    between atoms: CA_48  and  CB_50 
REMARK   23  A    between atoms: CA_48  and  N_61 
REMARK   24  A    between atoms: CA_48  and  C_49 
REMARK       I    between atoms: C_49  and  N_70 
REMARK   25  A    between atoms: CB_50  and  CG_51 
REMARK   26  A    between atoms: CA_64  and  N_70 
REMARK   27  A    between atoms: CA_64  and  CB_66 
REMARK   28  A    between atoms: CA_64  and  C_65 
ROOT
ATOM      1  CA  GLU B   4       6.191  90.829  60.638  1.00  0.00     0.177 C 
ENDROOT
BRANCH   1   2
ATOM      2  N   GLU B   4       6.563  90.874  62.050  1.00  0.00    -0.346 N 
ATOM      3  H   GLU B   4       6.511  90.055  62.585  1.00  0.23     0.163 HD
ATOM      4  C   PRO B   3       6.939  92.013  62.592  1.00  0.00     0.236 C 
ATOM      5  O   PRO B   3       7.055  93.067  62.011  1.00  0.00    -0.272 OA
BRANCH   4   6
ATOM      6  CA  PRO B   3       7.324  91.974  64.080  1.00  0.00     0.157 C 
ATOM      7  N   PRO B   3       8.637  92.559  64.309  1.00  0.00    -0.250 NA
ATOM      8  C   CYS B   2       9.352  92.435  65.440  1.00  0.00     0.276 A 
ATOM      9  CD  PRO B   3       8.693  93.599  65.268  1.00  0.00     0.102 A 
ATOM     10  O   CYS B   2       8.850  91.912  66.431  1.00  0.00    -0.301 OA
ATOM     11  CG  PRO B   3       7.382  93.394  66.032  1.00  0.00     0.024 C 
ATOM     12  CB  PRO B   3       6.426  92.858  64.956  1.00  0.00     0.031 C 
BRANCH   8  13
ATOM     13  CA  CYS B   2      10.761  92.982  65.458  1.00  0.00     0.157 C 
BRANCH  13  14
ATOM     14  N   CYS B   2      11.656  92.147  64.661  1.00  0.00    -0.347 N 
ATOM     15  H   CYS B   2      11.670  92.255  63.684  1.00  0.00     0.163 HD
ATOM     16  C   LYS B   1      12.456  91.240  65.228  1.00  0.00     0.254 C 
ATOM     17  O   LYS B   1      12.519  91.096  66.454  1.00  0.00    -0.271 OA
BRANCH  16  18
ATOM     18  CA  LYS B   1      13.318  90.429  64.289  1.00  0.00     0.350 C 
BRANCH  18  19
ATOM     19  CB  LYS B   1      14.713  91.088  64.108  1.00  0.00     0.048 C 
BRANCH  19  20
ATOM     20  CG  LYS B   1      14.647  92.623  63.909  1.00  0.00     0.004 C 
BRANCH  20  21
ATOM     21  CD  LYS B   1      15.292  93.132  62.616  1.00  0.00     0.027 C 
BRANCH  21  22
ATOM     22  CE  LYS B   1      15.295  94.667  62.623  1.00  0.00     0.229 C 
BRANCH  22  23
ATOM     23  NZ  LYS B   1      16.686  95.153  62.644  1.00  0.00    -0.079 N 
ATOM     24  HZ3 LYS B   1      16.718  95.949  62.022  1.00  0.00     0.274 HD
ATOM     25  HZ2 LYS B   1      17.341  94.426  62.339  1.00  0.00     0.274 HD
ATOM     26  HZ1 LYS B   1      16.967  95.409  63.598  1.00  0.00     0.274 HD
ENDBRANCH  22  23
ENDBRANCH  21  22
ENDBRANCH  20  21
ENDBRANCH  19  20
ENDBRANCH  18  19
BRANCH  18  27
ATOM     27  N   LYS B   1      12.677  90.283  62.986  1.00  0.00     0.312 N 
ATOM     28  H   LYS B   1      12.024  91.109  62.814  1.00  0.00     0.359 HD
ENDBRANCH  18  27
ENDBRANCH  16  18
ENDBRANCH  13  14
BRANCH  13  29
ATOM     29  CB  CYS B   2      10.838  94.427  64.929  1.00  0.00     0.103 C 
BRANCH  29  30
ATOM     30  SG  CYS B   2      11.590  94.468  63.285  1.00  0.00    -0.180 SA
ATOM     31  HG  CYS B   2      12.053  95.713  63.353  1.00  0.00     0.101 HD
ENDBRANCH  29  30
ENDBRANCH  13  29
ENDBRANCH   8  13
ENDBRANCH   4   6
ENDBRANCH   1   2
BRANCH   1  32
ATOM     32  CB  GLU B   4       6.592  89.490  60.019  1.00  0.00     0.045 C 
BRANCH  32  33
ATOM     33  CG  GLU B   4       7.444  88.630  60.938  1.00  0.00     0.116 C 
BRANCH  33  34
ATOM     34  CD  GLU B   4       6.725  88.249  62.218  1.00  0.00     0.172 C 
ATOM     35  OE2 GLU B   4       5.490  88.069  62.173  1.00  0.00    -0.648 OA
ATOM     36  OE1 GLU B   4       7.396  88.130  63.263  1.00  0.00    -0.648 OA
ENDBRANCH  33  34
ENDBRANCH  32  33
ENDBRANCH   1  32
BRANCH   1  37
ATOM     37  C   GLU B   4       4.691  91.048  60.464  1.00  0.00     0.241 C 
ATOM     38  O   GLU B   4       4.221  92.186  60.425  1.00  0.00    -0.271 OA
ATOM     39  N   THR B   5       3.947  89.951  60.363  1.00  7.70    -0.344 N 
ATOM     40  H   THR B   5       4.384  89.075  60.404  1.00  0.23     0.163 HD
BRANCH  39  41
ATOM     41  CA  THR B   5       2.498  90.014  60.197  1.00  7.88     0.205 C 
BRANCH  41  42
ATOM     42  CB  THR B   5       2.129  89.920  58.716  1.00  4.05     0.146 C 
ATOM     43  CG2 THR B   5       3.297  89.540  57.832  1.00  3.72     0.042 C 
BRANCH  42  44
ATOM     44  OG1 THR B   5       1.108  88.958  58.514  1.00  7.31    -0.393 OA
ATOM     45  HG1 THR B   5       0.443  89.317  57.923  1.00  0.23     0.210 HD
ENDBRANCH  42  44
ENDBRANCH  41  42
BRANCH  41  46
ATOM     46  C   THR B   5       1.819  88.891  60.975  1.00  7.05     0.243 C 
ATOM     47  N   TRP B   6       2.594  87.876  61.340  1.00  0.00    -0.346 N 
ATOM     48  H   TRP B   6       3.545  87.890  61.102  1.00  0.23     0.163 HD
ATOM     49  O   THR B   5       0.617  88.943  61.235  1.00  6.06    -0.271 OA
BRANCH  47  50
ATOM     50  CA  TRP B   6       2.065  86.740  62.084  1.00  0.00     0.181 C 
BRANCH  50  51
ATOM     51  CB  TRP B   6       2.652  85.435  61.544  1.00  0.00     0.075 C 
BRANCH  51  52
ATOM     52  CG  TRP B   6       3.281  85.593  60.193  1.00  0.00    -0.028 A 
ATOM     53  CD2 TRP B   6       4.673  85.467  59.876  1.00  0.00    -0.002 A 
ATOM     54  CE2 TRP B   6       4.806  85.688  58.492  1.00  0.00     0.042 A 
ATOM     55  CE3 TRP B   6       5.817  85.191  60.628  1.00  0.00     0.014 A 
ATOM     56  CZ2 TRP B   6       6.039  85.639  57.847  1.00  0.00     0.030 A 
ATOM     57  NE1 TRP B   6       3.554  85.936  57.991  1.00  0.00    -0.365 N 
ATOM     58  CH2 TRP B   6       7.144  85.367  58.607  1.00  0.00     0.002 A 
ATOM     59  CZ3 TRP B   6       7.041  85.143  59.985  1.00  0.00     0.001 A 
ATOM     60  HE1 TRP B   6       3.342  86.124  57.053  1.00  0.23     0.165 HD
ATOM     61  CD1 TRP B   6       2.645  85.877  59.020  1.00  0.00     0.096 A 
ENDBRANCH  51  52
ENDBRANCH  50  51
BRANCH  50  62
ATOM     62  C   TRP B   6       2.365  86.875  63.573  1.00  0.00     0.241 C 
ATOM     63  N   VAL B   7       2.737  88.083  63.986  1.00  6.11    -0.344 N 
ATOM     64  H   VAL B   7       2.799  88.812  63.336  1.00  0.23     0.163 HD
ATOM     65  O   TRP B   6       2.265  85.907  64.327  1.00  0.00    -0.271 OA
BRANCH  63  66
ATOM     66  CA  VAL B   7       3.057  88.349  65.383  1.00  5.65     0.189 C 
BRANCH  66  67
ATOM     67  CB  VAL B   7       3.911  89.624  65.527  1.00  1.15     0.010 C 
ATOM     68  CG1 VAL B   7       5.358  89.266  65.833  1.00  4.96     0.012 C 
ATOM     69  CG2 VAL B   7       3.821  90.476  64.269  1.00  9.83     0.012 C 
ENDBRANCH  66  67
BRANCH  66  70
ATOM     70  C   VAL B   7       1.789  88.501  66.219  1.00  4.44     0.197 C 
ATOM     71  OXT VAL B   7       0.818  89.101  65.717  1.00  0.00    -0.646 OA
ATOM     72  O   VAL B   7       1.781  88.017  67.370  1.00  0.00    -0.646 OA
ENDBRANCH  66  70
ENDBRANCH  63  66
ENDBRANCH  50  62
ENDBRANCH  47  50
ENDBRANCH  41  46
ENDBRANCH  39  41
ENDBRANCH   1  37
TORSDOF 28
ENDMDL
MODEL 3
REMARK VINA RESULT:      -6.6      2.599      4.173
REMARK  28 active torsions:
REMARK  status: ('A' for Active; 'I' for Inactive)
REMARK    1  A    between atoms: N_1  and  CA_2 
REMARK    2  A    between atoms: CA_2  and  C_3 
REMARK    3  A    between atoms: CA_2  and  CB_5 
REMARK       I    between atoms: C_3  and  N_14 
REMARK    4  A    between atoms: CB_5  and  CG_6 
REMARK    5  A    between atoms: CG_6  and  CD_7 
REMARK    6  A    between atoms: CD_7  and  CE_8 
REMARK    7  A    between atoms: CE_8  and  NZ_9 
REMARK    8  A    between atoms: N_14  and  CA_15 
REMARK    9  A    between atoms: CA_15  and  C_16 
REMARK   10  A    between atoms: CA_15  and  CB_18 
REMARK   11  A    between atoms: CB_18  and  SG_19 
REMARK   12  A    between atoms: CA_23  and  C_24 
REMARK       I    between atoms: C_24  and  N_35 
REMARK   13  A    between atoms: CA_29  and  N_35 
REMARK   14  A    between atoms: CA_29  and  CB_31 
REMARK   15  A    between atoms: CA_29  and  C_30 
REMARK       I    between atoms: C_30  and  N_45 
REMARK   16  A    between atoms: CB_31  and  CG_32 
REMARK   17  A    between atoms: CG_32  and  CD_33 
REMARK   18  A    between atoms: CA_39  and  N_45 
REMARK   19  A    between atoms: CA_39  and  CB_41 
REMARK   20  A    between atoms: CA_39  and  C_40 
REMARK       I    between atoms: C_40  and  N_61 
REMARK   21  A    between atoms: CB_41  and  OG1_47 
REMARK   22  A    between atoms: CA_48  and  CB_50 
REMARK   23  A    between atoms: CA_48  and  N_61 
REMARK   24  A    between atoms: CA_48  and  C_49 
REMARK       I    between atoms: C_49  and  N_70 
REMARK   25  A    between atoms: CB_50  and  CG_51 
REMARK   26  A    between atoms: CA_64  and  N_70 
REMARK   27  A    between atoms: CA_64  and  CB_66 
REMARK   28  A    between atoms: CA_64  and  C_65 
ROOT
ATOM      1  CA  GLU B   4       6.769  89.555  60.319  1.00  0.00     0.177 C 
ENDROOT
BRANCH   1   2
ATOM      2  N   GLU B   4       7.363  90.500  61.261  1.00  0.00    -0.346 N 
ATOM      3  H   GLU B   4       8.048  91.125  60.944  1.00  0.23     0.163 HD
ATOM      4  C   PRO B   3       6.991  90.486  62.523  1.00  0.00     0.236 C 
ATOM      5  O   PRO B   3       6.143  89.771  63.002  1.00  0.00    -0.272 OA
BRANCH   4   6
ATOM      6  CA  PRO B   3       7.656  91.520  63.448  1.00  0.00     0.157 C 
ATOM      7  N   PRO B   3       8.964  91.069  63.902  1.00  0.00    -0.250 NA
ATOM      8  C   CYS B   2       9.664  91.616  64.910  1.00  0.00     0.276 A 
ATOM      9  CD  PRO B   3      10.043  91.953  63.660  1.00  0.00     0.102 A 
ATOM     10  O   CYS B   2       9.278  92.658  65.432  1.00  0.00    -0.301 OA
ATOM     11  CG  PRO B   3       9.315  93.275  63.400  1.00  0.00     0.024 C 
ATOM     12  CB  PRO B   3       8.005  92.832  62.731  1.00  0.00     0.031 C 
BRANCH   8  13
ATOM     13  CA  CYS B   2      10.939  90.933  65.348  1.00  0.00     0.157 C 
BRANCH  13  14
ATOM     14  N   CYS B   2      12.100  91.783  65.097  1.00  0.00    -0.347 N 
ATOM     15  H   CYS B   2      12.027  92.752  65.248  1.00  0.00     0.163 HD
ATOM     16  C   LYS B   1      13.259  91.275  64.668  1.00  0.00     0.254 C 
ATOM     17  O   LYS B   1      13.425  90.060  64.512  1.00  0.00    -0.271 OA
BRANCH  16  18
ATOM     18  CA  LYS B   1      14.375  92.265  64.430  1.00  0.00     0.350 C 
BRANCH  18  19
ATOM     19  CB  LYS B   1      13.881  93.461  63.571  1.00  0.00     0.048 C 
BRANCH  19  20
ATOM     20  CG  LYS B   1      14.997  94.100  62.707  1.00  0.00     0.004 C 
BRANCH  20  21
ATOM     21  CD  LYS B   1      15.750  95.253  63.377  1.00  0.00     0.027 C 
BRANCH  21  22
ATOM     22  CE  LYS B   1      14.752  96.356  63.756  1.00  0.00     0.229 C 
BRANCH  22  23
ATOM     23  NZ  LYS B   1      15.463  97.440  64.456  1.00  0.00    -0.079 N 
ATOM     24  HZ3 LYS B   1      15.045  98.304  64.141  1.00  0.00     0.274 HD
ATOM     25  HZ2 LYS B   1      16.467  97.423  64.249  1.00  0.00     0.274 HD
ATOM     26  HZ1 LYS B   1      15.380  97.329  65.474  1.00  0.00     0.274 HD
ENDBRANCH  22  23
ENDBRANCH  21  22
ENDBRANCH  20  21
ENDBRANCH  19  20
ENDBRANCH  18  19
BRANCH  18  27
ATOM     27  N   LYS B   1      15.508  91.626  63.769  1.00  0.00     0.312 N 
ATOM     28  H   LYS B   1      15.287  91.489  62.733  1.00  0.00     0.359 HD
ENDBRANCH  18  27
ENDBRANCH  16  18
ENDBRANCH  13  14
BRANCH  13  29
ATOM     29  CB  CYS B   2      10.921  90.556  66.842  1.00  0.00     0.103 C 
BRANCH  29  30
ATOM     30  SG  CYS B   2       9.539  89.449  67.206  1.00  0.00    -0.180 SA
ATOM     31  HG  CYS B   2      10.091  88.340  66.722  1.00  0.00     0.101 HD
ENDBRANCH  29  30
ENDBRANCH  13  29
ENDBRANCH   8  13
ENDBRANCH   4   6
ENDBRANCH   1   2
BRANCH   1  32
ATOM     32  CB  GLU B   4       6.857  88.128  60.863  1.00  0.00     0.045 C 
BRANCH  32  33
ATOM     33  CG  GLU B   4       7.612  87.178  59.949  1.00  0.00     0.116 C 
BRANCH  33  34
ATOM     34  CD  GLU B   4       6.696  86.409  59.016  1.00  0.00     0.172 C 
ATOM     35  OE2 GLU B   4       5.543  86.133  59.411  1.00  0.00    -0.648 OA
ATOM     36  OE1 GLU B   4       7.131  86.083  57.893  1.00  0.00    -0.648 OA
ENDBRANCH  33  34
ENDBRANCH  32  33
ENDBRANCH   1  32
BRANCH   1  37
ATOM     37  C   GLU B   4       5.312  89.910  60.038  1.00  0.00     0.241 C 
ATOM     38  O   GLU B   4       5.018  90.961  59.469  1.00  0.00    -0.271 OA
ATOM     39  N   THR B   5       4.404  89.027  60.447  1.00  7.70    -0.344 N 
ATOM     40  H   THR B   5       4.705  88.210  60.896  1.00  0.23     0.163 HD
BRANCH  39  41
ATOM     41  CA  THR B   5       2.974  89.242  60.247  1.00  7.88     0.205 C 
BRANCH  41  42
ATOM     42  CB  THR B   5       2.502  88.523  58.982  1.00  4.05     0.146 C 
ATOM     43  CG2 THR B   5       2.113  89.468  57.867  1.00  3.72     0.042 C 
BRANCH  42  44
ATOM     44  OG1 THR B   5       3.515  87.667  58.485  1.00  7.31    -0.393 OA
ATOM     45  HG1 THR B   5       3.590  87.778  57.535  1.00  0.23     0.210 HD
ENDBRANCH  42  44
ENDBRANCH  41  42
BRANCH  41  46
ATOM     46  C   THR B   5       2.183  88.747  61.453  1.00  7.05     0.243 C 
ATOM     47  N   TRP B   6       2.889  88.190  62.431  1.00  0.00    -0.346 N 
ATOM     48  H   TRP B   6       3.862  88.123  62.341  1.00  0.23     0.163 HD
ATOM     49  O   THR B   5       0.959  88.865  61.494  1.00  6.06    -0.271 OA
BRANCH  47  50
ATOM     50  CA  TRP B   6       2.250  87.674  63.635  1.00  0.00     0.181 C 
BRANCH  50  51
ATOM     51  CB  TRP B   6       2.705  86.239  63.900  1.00  0.00     0.075 C 
BRANCH  51  52
ATOM     52  CG  TRP B   6       1.825  85.217  63.247  1.00  0.00    -0.028 A 
ATOM     53  CD2 TRP B   6       2.044  83.802  63.201  1.00  0.00    -0.002 A 
ATOM     54  CE2 TRP B   6       0.965  83.236  62.495  1.00  0.00     0.042 A 
ATOM     55  CE3 TRP B   6       3.047  82.960  63.688  1.00  0.00     0.014 A 
ATOM     56  CZ2 TRP B   6       0.863  81.867  62.266  1.00  0.00     0.030 A 
ATOM     57  NE1 TRP B   6       0.130  84.260  62.129  1.00  0.00    -0.365 N 
ATOM     58  CH2 TRP B   6       1.859  81.065  62.752  1.00  0.00     0.002 A 
ATOM     59  CZ3 TRP B   6       2.943  81.599  63.459  1.00  0.00     0.001 A 
ATOM     60  HE1 TRP B   6      -0.704  84.162  61.624  1.00  0.23     0.165 HD
ATOM     61  CD1 TRP B   6       0.654  85.446  62.584  1.00  0.00     0.096 A 
ENDBRANCH  51  52
ENDBRANCH  50  51
BRANCH  50  62
ATOM     62  C   TRP B   6       2.564  88.556  64.839  1.00  0.00     0.241 C 
ATOM     63  N   VAL B   7       3.610  89.367  64.713  1.00  6.11    -0.344 N 
ATOM     64  H   VAL B   7       4.119  89.363  63.876  1.00  0.23     0.163 HD
ATOM     65  O   TRP B   6       1.876  88.500  65.859  1.00  0.00    -0.271 OA
BRANCH  63  66
ATOM     66  CA  VAL B   7       4.021  90.259  65.790  1.00  5.65     0.189 C 
BRANCH  66  67
ATOM     67  CB  VAL B   7       5.515  90.079  66.123  1.00  1.15     0.010 C 
ATOM     68  CG1 VAL B   7       6.002  91.208  67.020  1.00  4.96     0.012 C 
ATOM     69  CG2 VAL B   7       5.761  88.727  66.777  1.00  9.83     0.012 C 
ENDBRANCH  66  67
BRANCH  66  70
ATOM     70  C   VAL B   7       3.765  91.718  65.423  1.00  4.44     0.197 C 
ATOM     71  OXT VAL B   7       2.980  92.378  66.134  1.00  0.00    -0.646 OA
ATOM     72  O   VAL B   7       4.355  92.188  64.428  1.00  0.00    -0.646 OA
ENDBRANCH  66  70
ENDBRANCH  63  66
ENDBRANCH  50  62
ENDBRANCH  47  50
ENDBRANCH  41  46
ENDBRANCH  39  41
ENDBRANCH   1  37
TORSDOF 28
ENDMDL
MODEL 4
REMARK VINA RESULT:      -5.6      2.903      4.928
REMARK  28 active torsions:
REMARK  status: ('A' for Active; 'I' for Inactive)
REMARK    1  A    between atoms: N_1  and  CA_2 
REMARK    2  A    between atoms: CA_2  and  C_3 
REMARK    3  A    between atoms: CA_2  and  CB_5 
REMARK       I    between atoms: C_3  and  N_14 
REMARK    4  A    between atoms: CB_5  and  CG_6 
REMARK    5  A    between atoms: CG_6  and  CD_7 
REMARK    6  A    between atoms: CD_7  and  CE_8 
REMARK    7  A    between atoms: CE_8  and  NZ_9 
REMARK    8  A    between atoms: N_14  and  CA_15 
REMARK    9  A    between atoms: CA_15  and  C_16 
REMARK   10  A    between atoms: CA_15  and  CB_18 
REMARK   11  A    between atoms: CB_18  and  SG_19 
REMARK   12  A    between atoms: CA_23  and  C_24 
REMARK       I    between atoms: C_24  and  N_35 
REMARK   13  A    between atoms: CA_29  and  N_35 
REMARK   14  A    between atoms: CA_29  and  CB_31 
REMARK   15  A    between atoms: CA_29  and  C_30 
REMARK       I    between atoms: C_30  and  N_45 
REMARK   16  A    between atoms: CB_31  and  CG_32 
REMARK   17  A    between atoms: CG_32  and  CD_33 
REMARK   18  A    between atoms: CA_39  and  N_45 
REMARK   19  A    between atoms: CA_39  and  CB_41 
REMARK   20  A    between atoms: CA_39  and  C_40 
REMARK       I    between atoms: C_40  and  N_61 
REMARK   21  A    between atoms: CB_41  and  OG1_47 
REMARK   22  A    between atoms: CA_48  and  CB_50 
REMARK   23  A    between atoms: CA_48  and  N_61 
REMARK   24  A    between atoms: CA_48  and  C_49 
REMARK       I    between atoms: C_49  and  N_70 
REMARK   25  A    between atoms: CB_50  and  CG_51 
REMARK   26  A    between atoms: CA_64  and  N_70 
REMARK   27  A    between atoms: CA_64  and  CB_66 
REMARK   28  A    between atoms: CA_64  and  C_65 
ROOT
ATOM      1  CA  GLU B   4       6.801  89.638  60.997  1.00  0.00     0.177 C 
ENDROOT
BRANCH   1   2
ATOM      2  N   GLU B   4       6.917  90.448  62.208  1.00  0.00    -0.346 N 
ATOM      3  H   GLU B   4       7.674  91.062  62.302  1.00  0.23     0.163 HD
ATOM      4  C   PRO B   3       6.020  90.326  63.163  1.00  0.00     0.236 C 
ATOM      5  O   PRO B   3       5.043  89.615  63.129  1.00  0.00    -0.272 OA
BRANCH   4   6
ATOM      6  CA  PRO B   3       6.207  91.221  64.400  1.00  0.00     0.157 C 
ATOM      7  N   PRO B   3       7.347  90.798  65.199  1.00  0.00    -0.250 NA
ATOM      8  C   CYS B   2       7.606  91.203  66.454  1.00  0.00     0.276 A 
ATOM      9  CD  PRO B   3       8.317  91.792  65.471  1.00  0.00     0.102 A 
ATOM     10  O   CYS B   2       6.936  92.098  66.961  1.00  0.00    -0.301 OA
ATOM     11  CG  PRO B   3       7.540  93.079  65.177  1.00  0.00     0.024 C 
ATOM     12  CB  PRO B   3       6.588  92.665  64.045  1.00  0.00     0.031 C 
BRANCH   8  13
ATOM     13  CA  CYS B   2       8.752  90.553  67.193  1.00  0.00     0.157 C 
BRANCH  13  14
ATOM     14  N   CYS B   2      10.037  91.022  66.682  1.00  0.00    -0.347 N 
ATOM     15  H   CYS B   2      10.066  91.830  66.123  1.00  0.00     0.163 HD
ATOM     16  C   LYS B   1      11.175  90.378  66.956  1.00  0.00     0.254 C 
ATOM     17  O   LYS B   1      11.209  89.388  67.694  1.00  0.00    -0.271 OA
BRANCH  16  18
ATOM     18  CA  LYS B   1      12.433  90.957  66.350  1.00  0.00     0.350 C 
BRANCH  18  19
ATOM     19  CB  LYS B   1      12.108  92.208  65.489  1.00  0.00     0.048 C 
BRANCH  19  20
ATOM     20  CG  LYS B   1      13.197  92.530  64.435  1.00  0.00     0.004 C 
BRANCH  20  21
ATOM     21  CD  LYS B   1      13.244  93.992  63.982  1.00  0.00     0.027 C 
BRANCH  21  22
ATOM     22  CE  LYS B   1      13.933  94.076  62.613  1.00  0.00     0.229 C 
BRANCH  22  23
ATOM     23  NZ  LYS B   1      15.309  93.563  62.725  1.00  0.00    -0.079 N 
ATOM     24  HZ3 LYS B   1      15.892  94.359  62.944  1.00  0.00     0.274 HD
ATOM     25  HZ2 LYS B   1      15.614  93.117  61.854  1.00  0.00     0.274 HD
ATOM     26  HZ1 LYS B   1      15.369  92.841  63.453  1.00  0.00     0.274 HD
ENDBRANCH  22  23
ENDBRANCH  21  22
ENDBRANCH  20  21
ENDBRANCH  19  20
ENDBRANCH  18  19
BRANCH  18  27
ATOM     27  N   LYS B   1      13.121  89.966  65.527  1.00  0.00     0.312 N 
ATOM     28  H   LYS B   1      13.658  90.460  64.748  1.00  0.00     0.359 HD
ENDBRANCH  18  27
ENDBRANCH  16  18
ENDBRANCH  13  14
BRANCH  13  29
ATOM     29  CB  CYS B   2       8.702  90.820  68.710  1.00  0.00     0.103 C 
BRANCH  29  30
ATOM     30  SG  CYS B   2       8.016  89.397  69.588  1.00  0.00    -0.180 SA
ATOM     31  HG  CYS B   2       8.697  88.461  68.931  1.00  0.00     0.101 HD
ENDBRANCH  29  30
ENDBRANCH  13  29
ENDBRANCH   8  13
ENDBRANCH   4   6
ENDBRANCH   1   2
BRANCH   1  32
ATOM     32  CB  GLU B   4       7.063  88.164  61.310  1.00  0.00     0.045 C 
BRANCH  32  33
ATOM     33  CG  GLU B   4       7.744  87.417  60.175  1.00  0.00     0.116 C 
BRANCH  33  34
ATOM     34  CD  GLU B   4       7.037  86.123  59.817  1.00  0.00     0.172 C 
ATOM     35  OE2 GLU B   4       5.996  85.824  60.439  1.00  0.00    -0.648 OA
ATOM     36  OE1 GLU B   4       7.524  85.411  58.916  1.00  0.00    -0.648 OA
ENDBRANCH  33  34
ENDBRANCH  32  33
ENDBRANCH   1  32
BRANCH   1  37
ATOM     37  C   GLU B   4       5.419  89.793  60.369  1.00  0.00     0.241 C 
ATOM     38  O   GLU B   4       5.104  90.832  59.788  1.00  0.00    -0.271 OA
ATOM     39  N   THR B   5       4.599  88.753  60.494  1.00  7.70    -0.344 N 
ATOM     40  H   THR B   5       4.912  87.956  60.971  1.00  0.23     0.163 HD
BRANCH  39  41
ATOM     41  CA  THR B   5       3.246  88.767  59.945  1.00  7.88     0.205 C 
BRANCH  41  42
ATOM     42  CB  THR B   5       3.167  87.872  58.707  1.00  4.05     0.146 C 
ATOM     43  CG2 THR B   5       2.968  86.409  59.039  1.00  3.72     0.042 C 
BRANCH  42  44
ATOM     44  OG1 THR B   5       2.098  88.271  57.868  1.00  7.31    -0.393 OA
ATOM     45  HG1 THR B   5       1.410  88.678  58.399  1.00  0.23     0.210 HD
ENDBRANCH  42  44
ENDBRANCH  41  42
BRANCH  41  46
ATOM     46  C   THR B   5       2.238  88.300  60.990  1.00  7.05     0.243 C 
ATOM     47  N   TRP B   6       2.739  87.711  62.070  1.00  0.00    -0.346 N 
ATOM     48  H   TRP B   6       3.710  87.604  62.150  1.00  0.23     0.163 HD
ATOM     49  O   THR B   5       1.030  88.468  60.819  1.00  6.06    -0.271 OA
BRANCH  47  50
ATOM     50  CA  TRP B   6       1.880  87.217  63.138  1.00  0.00     0.181 C 
BRANCH  50  51
ATOM     51  CB  TRP B   6       2.387  85.863  63.640  1.00  0.00     0.075 C 
BRANCH  51  52
ATOM     52  CG  TRP B   6       1.691  84.704  62.994  1.00  0.00    -0.028 A 
ATOM     53  CD2 TRP B   6       2.014  83.317  63.150  1.00  0.00    -0.002 A 
ATOM     54  CE2 TRP B   6       1.098  82.586  62.370  1.00  0.00     0.042 A 
ATOM     55  CE3 TRP B   6       2.989  82.623  63.872  1.00  0.00     0.014 A 
ATOM     56  CZ2 TRP B   6       1.129  81.196  62.294  1.00  0.00     0.030 A 
ATOM     57  NE1 TRP B   6       0.258  83.487  61.768  1.00  0.00    -0.365 N 
ATOM     58  CH2 TRP B   6       2.094  80.542  63.010  1.00  0.00     0.002 A 
ATOM     59  CZ3 TRP B   6       3.018  81.242  63.795  1.00  0.00     0.001 A 
ATOM     60  HE1 TRP B   6      -0.482  83.263  61.165  1.00  0.23     0.165 HD
ATOM     61  CD1 TRP B   6       0.621  84.756  62.149  1.00  0.00     0.096 A 
ENDBRANCH  51  52
ENDBRANCH  50  51
BRANCH  50  62
ATOM     62  C   TRP B   6       1.816  88.214  64.291  1.00  0.00     0.241 C 
ATOM     63  N   VAL B   7       2.536  87.911  65.367  1.00  6.11    -0.344 N 
ATOM     64  H   VAL B   7       3.062  87.085  65.371  1.00  0.23     0.163 HD
ATOM     65  O   TRP B   6       1.127  89.231  64.208  1.00  0.00    -0.271 OA
BRANCH  63  66
ATOM     66  CA  VAL B   7       2.561  88.775  66.540  1.00  5.65     0.189 C 
BRANCH  66  67
ATOM     67  CB  VAL B   7       2.234  87.985  67.822  1.00  1.15     0.010 C 
ATOM     68  CG1 VAL B   7       2.808  86.577  67.743  1.00  4.96     0.012 C 
ATOM     69  CG2 VAL B   7       2.757  88.712  69.051  1.00  9.83     0.012 C 
ENDBRANCH  66  67
BRANCH  66  70
ATOM     70  C   VAL B   7       3.922  89.445  66.701  1.00  4.44     0.197 C 
ATOM     71  OXT VAL B   7       4.944  88.731  66.651  1.00  0.00    -0.646 OA
ATOM     72  O   VAL B   7       3.953  90.682  66.876  1.00  0.00    -0.646 OA
ENDBRANCH  66  70
ENDBRANCH  63  66
ENDBRANCH  50  62
ENDBRANCH  47  50
ENDBRANCH  41  46
ENDBRANCH  39  41
ENDBRANCH   1  37
TORSDOF 28
ENDMDL
MODEL 5
REMARK VINA RESULT:      -5.3      2.994      6.634
REMARK  28 active torsions:
REMARK  status: ('A' for Active; 'I' for Inactive)
REMARK    1  A    between atoms: N_1  and  CA_2 
REMARK    2  A    between atoms: CA_2  and  C_3 
REMARK    3  A    between atoms: CA_2  and  CB_5 
REMARK       I    between atoms: C_3  and  N_14 
REMARK    4  A    between atoms: CB_5  and  CG_6 
REMARK    5  A    between atoms: CG_6  and  CD_7 
REMARK    6  A    between atoms: CD_7  and  CE_8 
REMARK    7  A    between atoms: CE_8  and  NZ_9 
REMARK    8  A    between atoms: N_14  and  CA_15 
REMARK    9  A    between atoms: CA_15  and  C_16 
REMARK   10  A    between atoms: CA_15  and  CB_18 
REMARK   11  A    between atoms: CB_18  and  SG_19 
REMARK   12  A    between atoms: CA_23  and  C_24 
REMARK       I    between atoms: C_24  and  N_35 
REMARK   13  A    between atoms: CA_29  and  N_35 
REMARK   14  A    between atoms: CA_29  and  CB_31 
REMARK   15  A    between atoms: CA_29  and  C_30 
REMARK       I    between atoms: C_30  and  N_45 
REMARK   16  A    between atoms: CB_31  and  CG_32 
REMARK   17  A    between atoms: CG_32  and  CD_33 
REMARK   18  A    between atoms: CA_39  and  N_45 
REMARK   19  A    between atoms: CA_39  and  CB_41 
REMARK   20  A    between atoms: CA_39  and  C_40 
REMARK       I    between atoms: C_40  and  N_61 
REMARK   21  A    between atoms: CB_41  and  OG1_47 
REMARK   22  A    between atoms: CA_48  and  CB_50 
REMARK   23  A    between atoms: CA_48  and  N_61 
REMARK   24  A    between atoms: CA_48  and  C_49 
REMARK       I    between atoms: C_49  and  N_70 
REMARK   25  A    between atoms: CB_50  and  CG_51 
REMARK   26  A    between atoms: CA_64  and  N_70 
REMARK   27  A    between atoms: CA_64  and  CB_66 
REMARK   28  A    between atoms: CA_64  and  C_65 
ROOT
ATOM      1  CA  GLU B   4       4.761  91.198  61.306  1.00  0.00     0.177 C 
ENDROOT
BRANCH   1   2
ATOM      2  N   GLU B   4       5.862  90.642  62.091  1.00  0.00    -0.346 N 
ATOM      3  H   GLU B   4       5.937  90.872  63.040  1.00  0.23     0.163 HD
ATOM      4  C   PRO B   3       6.751  89.864  61.510  1.00  0.00     0.236 C 
ATOM      5  O   PRO B   3       6.731  89.508  60.355  1.00  0.00    -0.272 OA
BRANCH   4   6
ATOM      6  CA  PRO B   3       7.872  89.312  62.406  1.00  0.00     0.157 C 
ATOM      7  N   PRO B   3       8.223  90.249  63.463  1.00  0.00    -0.250 NA
ATOM      8  C   CYS B   2       9.324  90.174  64.230  1.00  0.00     0.276 A 
ATOM      9  CD  PRO B   3       8.173  89.741  64.784  1.00  0.00     0.102 A 
ATOM     10  O   CYS B   2      10.052  89.188  64.164  1.00  0.00    -0.301 OA
ATOM     11  CG  PRO B   3       8.195  88.229  64.541  1.00  0.00     0.024 C 
ATOM     12  CB  PRO B   3       7.446  88.074  63.209  1.00  0.00     0.031 C 
BRANCH   8  13
ATOM     13  CA  CYS B   2       9.610  91.312  65.183  1.00  0.00     0.157 C 
BRANCH  13  14
ATOM     14  N   CYS B   2      10.079  92.492  64.461  1.00  0.00    -0.347 N 
ATOM     15  H   CYS B   2       9.435  93.194  64.218  1.00  0.00     0.163 HD
ATOM     16  C   LYS B   1      11.363  92.641  64.124  1.00  0.00     0.254 C 
ATOM     17  O   LYS B   1      12.226  91.818  64.448  1.00  0.00    -0.271 OA
BRANCH  16  18
ATOM     18  CA  LYS B   1      11.713  93.898  63.363  1.00  0.00     0.350 C 
BRANCH  18  19
ATOM     19  CB  LYS B   1      12.756  94.746  64.142  1.00  0.00     0.048 C 
BRANCH  19  20
ATOM     20  CG  LYS B   1      13.850  95.361  63.234  1.00  0.00     0.004 C 
BRANCH  20  21
ATOM     21  CD  LYS B   1      15.188  94.616  63.243  1.00  0.00     0.027 C 
BRANCH  21  22
ATOM     22  CE  LYS B   1      14.991  93.213  62.653  1.00  0.00     0.229 C 
BRANCH  22  23
ATOM     23  NZ  LYS B   1      15.218  92.204  63.702  1.00  0.00    -0.079 N 
ATOM     24  HZ3 LYS B   1      14.472  91.529  63.614  1.00  0.00     0.274 HD
ATOM     25  HZ2 LYS B   1      15.218  92.629  64.636  1.00  0.00     0.274 HD
ATOM     26  HZ1 LYS B   1      16.140  91.765  63.589  1.00  0.00     0.274 HD
ENDBRANCH  22  23
ENDBRANCH  21  22
ENDBRANCH  20  21
ENDBRANCH  19  20
ENDBRANCH  18  19
BRANCH  18  27
ATOM     27  N   LYS B   1      10.522  94.705  63.111  1.00  0.00     0.312 N 
ATOM     28  H   LYS B   1      10.090  94.422  62.177  1.00  0.00     0.359 HD
ENDBRANCH  18  27
ENDBRANCH  16  18
ENDBRANCH  13  14
BRANCH  13  29
ATOM     29  CB  CYS B   2       8.376  91.706  66.017  1.00  0.00     0.103 C 
BRANCH  29  30
ATOM     30  SG  CYS B   2       7.808  93.364  65.575  1.00  0.00    -0.180 SA
ATOM     31  HG  CYS B   2       8.236  93.977  66.676  1.00  0.00     0.101 HD
ENDBRANCH  29  30
ENDBRANCH  13  29
ENDBRANCH   8  13
ENDBRANCH   4   6
ENDBRANCH   1   2
BRANCH   1  32
ATOM     32  CB  GLU B   4       5.295  92.123  60.212  1.00  0.00     0.045 C 
BRANCH  32  33
ATOM     33  CG  GLU B   4       5.782  93.463  60.738  1.00  0.00     0.116 C 
BRANCH  33  34
ATOM     34  CD  GLU B   4       4.873  94.037  61.809  1.00  0.00     0.172 C 
ATOM     35  OE2 GLU B   4       5.151  93.813  63.005  1.00  0.00    -0.648 OA
ATOM     36  OE1 GLU B   4       3.886  94.711  61.449  1.00  0.00    -0.648 OA
ENDBRANCH  33  34
ENDBRANCH  32  33
ENDBRANCH   1  32
BRANCH   1  37
ATOM     37  C   GLU B   4       3.927  90.086  60.678  1.00  0.00     0.241 C 
ATOM     38  O   GLU B   4       3.495  90.193  59.530  1.00  0.00    -0.271 OA
ATOM     39  N   THR B   5       3.701  89.020  61.441  1.00  7.70    -0.344 N 
ATOM     40  H   THR B   5       4.072  88.998  62.348  1.00  0.23     0.163 HD
BRANCH  39  41
ATOM     41  CA  THR B   5       2.915  87.884  60.968  1.00  7.88     0.205 C 
BRANCH  41  42
ATOM     42  CB  THR B   5       3.836  86.729  60.575  1.00  4.05     0.146 C 
ATOM     43  CG2 THR B   5       3.103  85.572  59.931  1.00  3.72     0.042 C 
BRANCH  42  44
ATOM     44  OG1 THR B   5       4.828  87.167  59.664  1.00  7.31    -0.393 OA
ATOM     45  HG1 THR B   5       5.698  86.973  60.019  1.00  0.23     0.210 HD
ENDBRANCH  42  44
ENDBRANCH  41  42
BRANCH  41  46
ATOM     46  C   THR B   5       1.934  87.425  62.043  1.00  7.05     0.243 C 
ATOM     47  N   TRP B   6       2.467  87.014  63.188  1.00  0.00    -0.346 N 
ATOM     48  H   TRP B   6       3.441  87.023  63.294  1.00  0.23     0.163 HD
ATOM     49  O   THR B   5       0.721  87.440  61.836  1.00  6.06    -0.271 OA
BRANCH  47  50
ATOM     50  CA  TRP B   6       1.637  86.547  64.292  1.00  0.00     0.181 C 
BRANCH  50  51
ATOM     51  CB  TRP B   6       0.428  87.466  64.469  1.00  0.00     0.075 C 
BRANCH  51  52
ATOM     52  CG  TRP B   6       0.617  88.476  65.559  1.00  0.00    -0.028 A 
ATOM     53  CD2 TRP B   6       1.545  89.568  65.563  1.00  0.00    -0.002 A 
ATOM     54  CE2 TRP B   6       1.372  90.257  66.779  1.00  0.00     0.042 A 
ATOM     55  CE3 TRP B   6       2.504  90.029  64.658  1.00  0.00     0.014 A 
ATOM     56  CZ2 TRP B   6       2.123  91.381  67.110  1.00  0.00     0.030 A 
ATOM     57  NE1 TRP B   6       0.385  89.614  67.480  1.00  0.00    -0.365 N 
ATOM     58  CH2 TRP B   6       3.056  91.811  66.206  1.00  0.00     0.002 A 
ATOM     59  CZ3 TRP B   6       3.250  91.146  64.989  1.00  0.00     0.001 A 
ATOM     60  HE1 TRP B   6       0.052  89.873  68.365  1.00  0.23     0.165 HD
ATOM     61  CD1 TRP B   6      -0.062  88.546  66.740  1.00  0.00     0.096 A 
ENDBRANCH  51  52
ENDBRANCH  50  51
BRANCH  50  62
ATOM     62  C   TRP B   6       1.177  85.112  64.058  1.00  0.00     0.241 C 
ATOM     63  N   VAL B   7       2.022  84.158  64.437  1.00  6.11    -0.344 N 
ATOM     64  H   VAL B   7       2.878  84.411  64.839  1.00  0.23     0.163 HD
ATOM     65  O   TRP B   6       0.083  84.876  63.543  1.00  0.00    -0.271 OA
BRANCH  63  66
ATOM     66  CA  VAL B   7       1.707  82.745  64.268  1.00  5.65     0.189 C 
BRANCH  66  67
ATOM     67  CB  VAL B   7       2.949  81.947  63.823  1.00  1.15     0.010 C 
ATOM     68  CG1 VAL B   7       2.536  80.712  63.035  1.00  4.96     0.012 C 
ATOM     69  CG2 VAL B   7       3.885  82.822  63.003  1.00  9.83     0.012 C 
ENDBRANCH  66  67
BRANCH  66  70
ATOM     70  C   VAL B   7       1.164  82.143  65.560  1.00  4.44     0.197 C 
ATOM     71  OXT VAL B   7      -0.062  81.932  65.645  1.00  0.00    -0.646 OA
ATOM     72  O   VAL B   7       1.974  81.886  66.476  1.00  0.00    -0.646 OA
ENDBRANCH  66  70
ENDBRANCH  63  66
ENDBRANCH  50  62
ENDBRANCH  47  50
ENDBRANCH  41  46
ENDBRANCH  39  41
ENDBRANCH   1  37
TORSDOF 28
ENDMDL
MODEL 6
REMARK VINA RESULT:      -5.2      2.866      6.620
REMARK  28 active torsions:
REMARK  status: ('A' for Active; 'I' for Inactive)
REMARK    1  A    between atoms: N_1  and  CA_2 
REMARK    2  A    between atoms: CA_2  and  C_3 
REMARK    3  A    between atoms: CA_2  and  CB_5 
REMARK       I    between atoms: C_3  and  N_14 
REMARK    4  A    between atoms: CB_5  and  CG_6 
REMARK    5  A    between atoms: CG_6  and  CD_7 
REMARK    6  A    between atoms: CD_7  and  CE_8 
REMARK    7  A    between atoms: CE_8  and  NZ_9 
REMARK    8  A    between atoms: N_14  and  CA_15 
REMARK    9  A    between atoms: CA_15  and  C_16 
REMARK   10  A    between atoms: CA_15  and  CB_18 
REMARK   11  A    between atoms: CB_18  and  SG_19 
REMARK   12  A    between atoms: CA_23  and  C_24 
REMARK       I    between atoms: C_24  and  N_35 
REMARK   13  A    between atoms: CA_29  and  N_35 
REMARK   14  A    between atoms: CA_29  and  CB_31 
REMARK   15  A    between atoms: CA_29  and  C_30 
REMARK       I    between atoms: C_30  and  N_45 
REMARK   16  A    between atoms: CB_31  and  CG_32 
REMARK   17  A    between atoms: CG_32  and  CD_33 
REMARK   18  A    between atoms: CA_39  and  N_45 
REMARK   19  A    between atoms: CA_39  and  CB_41 
REMARK   20  A    between atoms: CA_39  and  C_40 
REMARK       I    between atoms: C_40  and  N_61 
REMARK   21  A    between atoms: CB_41  and  OG1_47 
REMARK   22  A    between atoms: CA_48  and  CB_50 
REMARK   23  A    between atoms: CA_48  and  N_61 
REMARK   24  A    between atoms: CA_48  and  C_49 
REMARK       I    between atoms: C_49  and  N_70 
REMARK   25  A    between atoms: CB_50  and  CG_51 
REMARK   26  A    between atoms: CA_64  and  N_70 
REMARK   27  A    between atoms: CA_64  and  CB_66 
REMARK   28  A    between atoms: CA_64  and  C_65 
ROOT
ATOM      1  CA  GLU B   4       4.506  91.091  60.985  1.00  0.00     0.177 C 
ENDROOT
BRANCH   1   2
ATOM      2  N   GLU B   4       5.506  90.853  62.024  1.00  0.00    -0.346 N 
ATOM      3  H   GLU B   4       5.368  91.231  62.917  1.00  0.23     0.163 HD
ATOM      4  C   PRO B   3       6.587  90.157  61.743  1.00  0.00     0.236 C 
ATOM      5  O   PRO B   3       6.835  89.634  60.681  1.00  0.00    -0.272 OA
BRANCH   4   6
ATOM      6  CA  PRO B   3       7.586  89.943  62.892  1.00  0.00     0.157 C 
ATOM      7  N   PRO B   3       8.370  91.142  63.151  1.00  0.00    -0.250 NA
ATOM      8  C   CYS B   2       9.485  91.191  63.899  1.00  0.00     0.276 A 
ATOM      9  CD  PRO B   3       8.348  91.621  64.483  1.00  0.00     0.102 A 
ATOM     10  O   CYS B   2       9.837  90.206  64.542  1.00  0.00    -0.301 OA
ATOM     11  CG  PRO B   3       7.845  90.395  65.251  1.00  0.00     0.024 C 
ATOM     12  CB  PRO B   3       6.902  89.713  64.248  1.00  0.00     0.031 C 
BRANCH   8  13
ATOM     13  CA  CYS B   2      10.259  92.488  63.944  1.00  0.00     0.157 C 
BRANCH  13  14
ATOM     14  N   CYS B   2      11.677  92.260  63.682  1.00  0.00    -0.347 N 
ATOM     15  H   CYS B   2      11.951  91.885  62.816  1.00  0.00     0.163 HD
ATOM     16  C   LYS B   1      12.611  92.550  64.592  1.00  0.00     0.254 C 
ATOM     17  O   LYS B   1      12.332  93.072  65.677  1.00  0.00    -0.271 OA
BRANCH  16  18
ATOM     18  CA  LYS B   1      14.040  92.249  64.202  1.00  0.00     0.350 C 
BRANCH  18  19
ATOM     19  CB  LYS B   1      14.299  92.619  62.716  1.00  0.00     0.048 C 
BRANCH  19  20
ATOM     20  CG  LYS B   1      14.476  94.140  62.483  1.00  0.00     0.004 C 
BRANCH  20  21
ATOM     21  CD  LYS B   1      15.862  94.689  62.835  1.00  0.00     0.027 C 
BRANCH  21  22
ATOM     22  CE  LYS B   1      15.704  96.025  63.575  1.00  0.00     0.229 C 
BRANCH  22  23
ATOM     23  NZ  LYS B   1      16.854  96.227  64.471  1.00  0.00    -0.079 N 
ATOM     24  HZ3 LYS B   1      17.290  95.323  64.584  1.00  0.00     0.274 HD
ATOM     25  HZ2 LYS B   1      16.560  96.605  65.378  1.00  0.00     0.274 HD
ATOM     26  HZ1 LYS B   1      17.507  96.914  64.075  1.00  0.00     0.274 HD
ENDBRANCH  22  23
ENDBRANCH  21  22
ENDBRANCH  20  21
ENDBRANCH  19  20
ENDBRANCH  18  19
BRANCH  18  27
ATOM     27  N   LYS B   1      14.353  90.839  64.414  1.00  0.00     0.312 N 
ATOM     28  H   LYS B   1      14.988  90.492  63.629  1.00  0.00     0.359 HD
ENDBRANCH  18  27
ENDBRANCH  16  18
ENDBRANCH  13  14
BRANCH  13  29
ATOM     29  CB  CYS B   2       9.733  93.523  62.931  1.00  0.00     0.103 C 
BRANCH  29  30
ATOM     30  SG  CYS B   2      10.847  94.942  62.829  1.00  0.00    -0.180 SA
ATOM     31  HG  CYS B   2      10.686  95.178  61.529  1.00  0.00     0.101 HD
ENDBRANCH  29  30
ENDBRANCH  13  29
ENDBRANCH   8  13
ENDBRANCH   4   6
ENDBRANCH   1   2
BRANCH   1  32
ATOM     32  CB  GLU B   4       5.153  91.720  59.751  1.00  0.00     0.045 C 
BRANCH  32  33
ATOM     33  CG  GLU B   4       5.004  93.232  59.695  1.00  0.00     0.116 C 
BRANCH  33  34
ATOM     34  CD  GLU B   4       6.292  93.961  60.027  1.00  0.00     0.172 C 
ATOM     35  OE2 GLU B   4       6.720  94.808  59.215  1.00  0.00    -0.648 OA
ATOM     36  OE1 GLU B   4       6.872  93.684  61.097  1.00  0.00    -0.648 OA
ENDBRANCH  33  34
ENDBRANCH  32  33
ENDBRANCH   1  32
BRANCH   1  37
ATOM     37  C   GLU B   4       3.809  89.791  60.595  1.00  0.00     0.241 C 
ATOM     38  O   GLU B   4       3.381  89.624  59.452  1.00  0.00    -0.271 OA
ATOM     39  N   THR B   5       3.694  88.876  61.553  1.00  7.70    -0.344 N 
ATOM     40  H   THR B   5       4.055  89.073  62.443  1.00  0.23     0.163 HD
BRANCH  39  41
ATOM     41  CA  THR B   5       3.046  87.589  61.319  1.00  7.88     0.205 C 
BRANCH  41  42
ATOM     42  CB  THR B   5       4.089  86.525  60.974  1.00  4.05     0.146 C 
ATOM     43  CG2 THR B   5       4.165  86.221  59.493  1.00  3.72     0.042 C 
BRANCH  42  44
ATOM     44  OG1 THR B   5       5.379  86.933  61.394  1.00  7.31    -0.393 OA
ATOM     45  HG1 THR B   5       5.463  86.802  62.341  1.00  0.23     0.210 HD
ENDBRANCH  42  44
ENDBRANCH  41  42
BRANCH  41  46
ATOM     46  C   THR B   5       2.249  87.158  62.546  1.00  7.05     0.243 C 
ATOM     47  N   TRP B   6       2.943  86.598  63.531  1.00  0.00    -0.346 N 
ATOM     48  H   TRP B   6       3.912  86.489  63.433  1.00  0.23     0.163 HD
ATOM     49  O   THR B   5       1.031  87.326  62.596  1.00  6.06    -0.271 OA
BRANCH  47  50
ATOM     50  CA  TRP B   6       2.297  86.140  64.754  1.00  0.00     0.181 C 
BRANCH  50  51
ATOM     51  CB  TRP B   6       1.525  87.287  65.406  1.00  0.00     0.075 C 
BRANCH  51  52
ATOM     52  CG  TRP B   6       2.380  88.136  66.297  1.00  0.00    -0.028 A 
ATOM     53  CD2 TRP B   6       2.977  89.395  65.965  1.00  0.00    -0.002 A 
ATOM     54  CE2 TRP B   6       3.685  89.833  67.100  1.00  0.00     0.042 A 
ATOM     55  CE3 TRP B   6       2.983  90.193  64.818  1.00  0.00     0.014 A 
ATOM     56  CZ2 TRP B   6       4.388  91.034  67.121  1.00  0.00     0.030 A 
ATOM     57  NE1 TRP B   6       3.525  88.884  68.077  1.00  0.00    -0.365 N 
ATOM     58  CH2 TRP B   6       4.378  91.796  65.985  1.00  0.00     0.002 A 
ATOM     59  CZ3 TRP B   6       3.683  91.386  64.840  1.00  0.00     0.001 A 
ATOM     60  HE1 TRP B   6       3.908  88.923  68.978  1.00  0.23     0.165 HD
ATOM     61  CD1 TRP B   6       2.741  87.868  67.586  1.00  0.00     0.096 A 
ENDBRANCH  51  52
ENDBRANCH  50  51
BRANCH  50  62
ATOM     62  C   TRP B   6       1.361  84.970  64.471  1.00  0.00     0.241 C 
ATOM     63  N   VAL B   7       1.921  83.888  63.938  1.00  6.11    -0.344 N 
ATOM     64  H   VAL B   7       2.883  83.890  63.756  1.00  0.23     0.163 HD
ATOM     65  O   TRP B   6       0.158  85.048  64.726  1.00  0.00    -0.271 OA
BRANCH  63  66
ATOM     66  CA  VAL B   7       1.139  82.701  63.614  1.00  5.65     0.189 C 
BRANCH  66  67
ATOM     67  CB  VAL B   7       1.102  82.456  62.093  1.00  1.15     0.010 C 
ATOM     68  CG1 VAL B   7      -0.062  81.546  61.728  1.00  4.96     0.012 C 
ATOM     69  CG2 VAL B   7       1.014  83.774  61.338  1.00  9.83     0.012 C 
ENDBRANCH  66  67
BRANCH  66  70
ATOM     70  C   VAL B   7       1.705  81.464  64.305  1.00  4.44     0.197 C 
ATOM     71  OXT VAL B   7       2.874  81.120  64.038  1.00  0.00    -0.646 OA
ATOM     72  O   VAL B   7       0.972  80.851  65.109  1.00  0.00    -0.646 OA
ENDBRANCH  66  70
ENDBRANCH  63  66
ENDBRANCH  50  62
ENDBRANCH  47  50
ENDBRANCH  41  46
ENDBRANCH  39  41
ENDBRANCH   1  37
TORSDOF 28
ENDMDL
MODEL 7
REMARK VINA RESULT:      -5.0      3.110      6.686
REMARK  28 active torsions:
REMARK  status: ('A' for Active; 'I' for Inactive)
REMARK    1  A    between atoms: N_1  and  CA_2 
REMARK    2  A    between atoms: CA_2  and  C_3 
REMARK    3  A    between atoms: CA_2  and  CB_5 
REMARK       I    between atoms: C_3  and  N_14 
REMARK    4  A    between atoms: CB_5  and  CG_6 
REMARK    5  A    between atoms: CG_6  and  CD_7 
REMARK    6  A    between atoms: CD_7  and  CE_8 
REMARK    7  A    between atoms: CE_8  and  NZ_9 
REMARK    8  A    between atoms: N_14  and  CA_15 
REMARK    9  A    between atoms: CA_15  and  C_16 
REMARK   10  A    between atoms: CA_15  and  CB_18 
REMARK   11  A    between atoms: CB_18  and  SG_19 
REMARK   12  A    between atoms: CA_23  and  C_24 
REMARK       I    between atoms: C_24  and  N_35 
REMARK   13  A    between atoms: CA_29  and  N_35 
REMARK   14  A    between atoms: CA_29  and  CB_31 
REMARK   15  A    between atoms: CA_29  and  C_30 
REMARK       I    between atoms: C_30  and  N_45 
REMARK   16  A    between atoms: CB_31  and  CG_32 
REMARK   17  A    between atoms: CG_32  and  CD_33 
REMARK   18  A    between atoms: CA_39  and  N_45 
REMARK   19  A    between atoms: CA_39  and  CB_41 
REMARK   20  A    between atoms: CA_39  and  C_40 
REMARK       I    between atoms: C_40  and  N_61 
REMARK   21  A    between atoms: CB_41  and  OG1_47 
REMARK   22  A    between atoms: CA_48  and  CB_50 
REMARK   23  A    between atoms: CA_48  and  N_61 
REMARK   24  A    between atoms: CA_48  and  C_49 
REMARK       I    between atoms: C_49  and  N_70 
REMARK   25  A    between atoms: CB_50  and  CG_51 
REMARK   26  A    between atoms: CA_64  and  N_70 
REMARK   27  A    between atoms: CA_64  and  CB_66 
REMARK   28  A    between atoms: CA_64  and  C_65 
ROOT
ATOM      1  CA  GLU B   4       4.224  90.835  61.394  1.00  0.00     0.177 C 
ENDROOT
BRANCH   1   2
ATOM      2  N   GLU B   4       4.773  90.557  62.720  1.00  0.00    -0.346 N 
ATOM      3  H   GLU B   4       4.345  90.952  63.508  1.00  0.23     0.163 HD
ATOM      4  C   PRO B   3       5.845  89.801  62.838  1.00  0.00     0.236 C 
ATOM      5  O   PRO B   3       6.427  89.254  61.931  1.00  0.00    -0.272 OA
BRANCH   4   6
ATOM      6  CA  PRO B   3       6.353  89.548  64.267  1.00  0.00     0.157 C 
ATOM      7  N   PRO B   3       7.283  90.583  64.696  1.00  0.00    -0.250 NA
ATOM      8  C   CYS B   2       8.087  90.504  65.769  1.00  0.00     0.276 A 
ATOM      9  CD  PRO B   3       6.964  91.238  65.910  1.00  0.00     0.102 A 
ATOM     10  O   CYS B   2       7.973  89.568  66.555  1.00  0.00    -0.301 OA
ATOM     11  CG  PRO B   3       5.967  90.263  66.542  1.00  0.00     0.024 C 
ATOM     12  CB  PRO B   3       5.247  89.657  65.327  1.00  0.00     0.031 C 
BRANCH   8  13
ATOM     13  CA  CYS B   2       9.097  91.607  65.988  1.00  0.00     0.157 C 
BRANCH  13  14
ATOM     14  N   CYS B   2      10.262  91.427  65.125  1.00  0.00    -0.347 N 
ATOM     15  H   CYS B   2      10.238  91.775  64.206  1.00  0.00     0.163 HD
ATOM     16  C   LYS B   1      11.361  90.800  65.556  1.00  0.00     0.254 C 
ATOM     17  O   LYS B   1      11.469  90.388  66.716  1.00  0.00    -0.271 OA
BRANCH  16  18
ATOM     18  CA  LYS B   1      12.487  90.664  64.558  1.00  0.00     0.350 C 
BRANCH  18  19
ATOM     19  CB  LYS B   1      13.069  92.055  64.186  1.00  0.00     0.048 C 
BRANCH  19  20
ATOM     20  CG  LYS B   1      14.416  91.975  63.425  1.00  0.00     0.004 C 
BRANCH  20  21
ATOM     21  CD  LYS B   1      15.566  92.756  64.066  1.00  0.00     0.027 C 
BRANCH  21  22
ATOM     22  CE  LYS B   1      15.501  94.220  63.608  1.00  0.00     0.229 C 
BRANCH  22  23
ATOM     23  NZ  LYS B   1      15.649  94.282  62.144  1.00  0.00    -0.079 N 
ATOM     24  HZ3 LYS B   1      16.423  94.905  61.962  1.00  0.00     0.274 HD
ATOM     25  HZ2 LYS B   1      14.792  94.624  61.696  1.00  0.00     0.274 HD
ATOM     26  HZ1 LYS B   1      15.819  93.346  61.756  1.00  0.00     0.274 HD
ENDBRANCH  22  23
ENDBRANCH  21  22
ENDBRANCH  20  21
ENDBRANCH  19  20
ENDBRANCH  18  19
BRANCH  18  27
ATOM     27  N   LYS B   1      12.034  89.986  63.347  1.00  0.00     0.312 N 
ATOM     28  H   LYS B   1      12.777  89.290  63.028  1.00  0.00     0.359 HD
ENDBRANCH  18  27
ENDBRANCH  16  18
ENDBRANCH  13  14
BRANCH  13  29
ATOM     29  CB  CYS B   2       8.507  93.006  65.727  1.00  0.00     0.103 C 
BRANCH  29  30
ATOM     30  SG  CYS B   2       9.759  94.110  65.035  1.00  0.00    -0.180 SA
ATOM     31  HG  CYS B   2      10.506  93.167  64.466  1.00  0.00     0.101 HD
ENDBRANCH  29  30
ENDBRANCH  13  29
ENDBRANCH   8  13
ENDBRANCH   4   6
ENDBRANCH   1   2
BRANCH   1  32
ATOM     32  CB  GLU B   4       5.343  91.198  60.416  1.00  0.00     0.045 C 
BRANCH  32  33
ATOM     33  CG  GLU B   4       5.475  92.693  60.178  1.00  0.00     0.116 C 
BRANCH  33  34
ATOM     34  CD  GLU B   4       6.601  93.317  60.980  1.00  0.00     0.172 C 
ATOM     35  OE2 GLU B   4       6.603  93.164  62.219  1.00  0.00    -0.648 OA
ATOM     36  OE1 GLU B   4       7.481  93.958  60.368  1.00  0.00    -0.648 OA
ENDBRANCH  33  34
ENDBRANCH  32  33
ENDBRANCH   1  32
BRANCH   1  37
ATOM     37  C   GLU B   4       3.447  89.633  60.864  1.00  0.00     0.241 C 
ATOM     38  O   GLU B   4       3.075  89.591  59.691  1.00  0.00    -0.271 OA
ATOM     39  N   THR B   5       3.204  88.661  61.739  1.00  7.70    -0.344 N 
ATOM     40  H   THR B   5       3.527  88.758  62.659  1.00  0.23     0.163 HD
BRANCH  39  41
ATOM     41  CA  THR B   5       2.468  87.456  61.369  1.00  7.88     0.205 C 
BRANCH  41  42
ATOM     42  CB  THR B   5       3.434  86.369  60.893  1.00  4.05     0.146 C 
ATOM     43  CG2 THR B   5       4.729  86.338  61.675  1.00  3.72     0.042 C 
BRANCH  42  44
ATOM     44  OG1 THR B   5       2.838  85.089  60.999  1.00  7.31    -0.393 OA
ATOM     45  HG1 THR B   5       1.898  85.186  61.169  1.00  0.23     0.210 HD
ENDBRANCH  42  44
ENDBRANCH  41  42
BRANCH  41  46
ATOM     46  C   THR B   5       1.648  86.944  62.548  1.00  7.05     0.243 C 
ATOM     47  N   TRP B   6       2.301  86.783  63.694  1.00  0.00    -0.346 N 
ATOM     48  H   TRP B   6       3.257  86.996  63.733  1.00  0.23     0.163 HD
ATOM     49  O   THR B   5       0.449  86.696  62.422  1.00  6.06    -0.271 OA
BRANCH  47  50
ATOM     50  CA  TRP B   6       1.632  86.296  64.893  1.00  0.00     0.181 C 
BRANCH  50  51
ATOM     51  CB  TRP B   6       0.382  87.131  65.176  1.00  0.00     0.075 C 
BRANCH  51  52
ATOM     52  CG  TRP B   6       0.700  88.516  65.648  1.00  0.00    -0.028 A 
ATOM     53  CD2 TRP B   6       1.551  88.874  66.744  1.00  0.00    -0.002 A 
ATOM     54  CE2 TRP B   6       1.564  90.280  66.820  1.00  0.00     0.042 A 
ATOM     55  CE3 TRP B   6       2.301  88.142  67.668  1.00  0.00     0.014 A 
ATOM     56  CZ2 TRP B   6       2.300  90.965  67.782  1.00  0.00     0.030 A 
ATOM     57  NE1 TRP B   6       0.759  90.754  65.817  1.00  0.00    -0.365 N 
ATOM     58  CH2 TRP B   6       3.025  90.225  68.675  1.00  0.00     0.002 A 
ATOM     59  CZ3 TRP B   6       3.032  88.825  68.623  1.00  0.00     0.001 A 
ATOM     60  HE1 TRP B   6       0.579  91.699  65.629  1.00  0.23     0.165 HD
ATOM     61  CD1 TRP B   6       0.244  89.689  65.119  1.00  0.00     0.096 A 
ENDBRANCH  51  52
ENDBRANCH  50  51
BRANCH  50  62
ATOM     62  C   TRP B   6       1.260  84.824  64.750  1.00  0.00     0.241 C 
ATOM     63  N   VAL B   7       2.260  83.955  64.863  1.00  6.11    -0.344 N 
ATOM     64  H   VAL B   7       3.165  84.288  65.030  1.00  0.23     0.163 HD
ATOM     65  O   TRP B   6       0.095  84.485  64.538  1.00  0.00    -0.271 OA
BRANCH  63  66
ATOM     66  CA  VAL B   7       2.043  82.518  64.744  1.00  5.65     0.189 C 
BRANCH  66  67
ATOM     67  CB  VAL B   7       2.651  81.970  63.438  1.00  1.15     0.010 C 
ATOM     68  CG1 VAL B   7       1.609  81.957  62.328  1.00  4.96     0.012 C 
ATOM     69  CG2 VAL B   7       3.867  82.785  63.027  1.00  9.83     0.012 C 
ENDBRANCH  66  67
BRANCH  66  70
ATOM     70  C   VAL B   7       2.647  81.770  65.928  1.00  4.44     0.197 C 
ATOM     71  OXT VAL B   7       3.419  80.818  65.695  1.00  0.00    -0.646 OA
ATOM     72  O   VAL B   7       2.342  82.145  67.080  1.00  0.00    -0.646 OA
ENDBRANCH  66  70
ENDBRANCH  63  66
ENDBRANCH  50  62
ENDBRANCH  47  50
ENDBRANCH  41  46
ENDBRANCH  39  41
ENDBRANCH   1  37
TORSDOF 28
ENDMDL
MODEL 8
REMARK VINA RESULT:      -4.9      3.227      6.927
REMARK  28 active torsions:
REMARK  status: ('A' for Active; 'I' for Inactive)
REMARK    1  A    between atoms: N_1  and  CA_2 
REMARK    2  A    between atoms: CA_2  and  C_3 
REMARK    3  A    between atoms: CA_2  and  CB_5 
REMARK       I    between atoms: C_3  and  N_14 
REMARK    4  A    between atoms: CB_5  and  CG_6 
REMARK    5  A    between atoms: CG_6  and  CD_7 
REMARK    6  A    between atoms: CD_7  and  CE_8 
REMARK    7  A    between atoms: CE_8  and  NZ_9 
REMARK    8  A    between atoms: N_14  and  CA_15 
REMARK    9  A    between atoms: CA_15  and  C_16 
REMARK   10  A    between atoms: CA_15  and  CB_18 
REMARK   11  A    between atoms: CB_18  and  SG_19 
REMARK   12  A    between atoms: CA_23  and  C_24 
REMARK       I    between atoms: C_24  and  N_35 
REMARK   13  A    between atoms: CA_29  and  N_35 
REMARK   14  A    between atoms: CA_29  and  CB_31 
REMARK   15  A    between atoms: CA_29  and  C_30 
REMARK       I    between atoms: C_30  and  N_45 
REMARK   16  A    between atoms: CB_31  and  CG_32 
REMARK   17  A    between atoms: CG_32  and  CD_33 
REMARK   18  A    between atoms: CA_39  and  N_45 
REMARK   19  A    between atoms: CA_39  and  CB_41 
REMARK   20  A    between atoms: CA_39  and  C_40 
REMARK       I    between atoms: C_40  and  N_61 
REMARK   21  A    between atoms: CB_41  and  OG1_47 
REMARK   22  A    between atoms: CA_48  and  CB_50 
REMARK   23  A    between atoms: CA_48  and  N_61 
REMARK   24  A    between atoms: CA_48  and  C_49 
REMARK       I    between atoms: C_49  and  N_70 
REMARK   25  A    between atoms: CB_50  and  CG_51 
REMARK   26  A    between atoms: CA_64  and  N_70 
REMARK   27  A    between atoms: CA_64  and  CB_66 
REMARK   28  A    between atoms: CA_64  and  C_65 
ROOT
ATOM      1  CA  GLU B   4       3.757  90.991  60.789  1.00  0.00     0.177 C 
ENDROOT
BRANCH   1   2
ATOM      2  N   GLU B   4       3.978  91.191  62.220  1.00  0.00    -0.346 N 
ATOM      3  H   GLU B   4       3.338  91.726  62.733  1.00  0.23     0.163 HD
ATOM      4  C   PRO B   3       5.042  90.672  62.796  1.00  0.00     0.236 C 
ATOM      5  O   PRO B   3       5.873  89.981  62.253  1.00  0.00    -0.272 OA
BRANCH   4   6
ATOM      6  CA  PRO B   3       5.197  90.918  64.306  1.00  0.00     0.157 C 
ATOM      7  N   PRO B   3       6.591  91.110  64.677  1.00  0.00    -0.250 NA
ATOM      8  C   CYS B   2       7.068  91.081  65.933  1.00  0.00     0.276 A 
ATOM      9  CD  PRO B   3       6.887  92.300  65.384  1.00  0.00     0.102 A 
ATOM     10  O   CYS B   2       6.293  91.026  66.884  1.00  0.00    -0.301 OA
ATOM     11  CG  PRO B   3       5.502  92.723  65.882  1.00  0.00     0.024 C 
ATOM     12  CB  PRO B   3       4.563  92.239  64.767  1.00  0.00     0.031 C 
BRANCH   8  13
ATOM     13  CA  CYS B   2       8.565  91.151  66.130  1.00  0.00     0.157 C 
BRANCH  13  14
ATOM     14  N   CYS B   2       9.087  92.449  65.713  1.00  0.00    -0.347 N 
ATOM     15  H   CYS B   2       8.561  93.260  65.894  1.00  0.00     0.163 HD
ATOM     16  C   LYS B   1      10.264  92.562  65.090  1.00  0.00     0.254 C 
ATOM     17  O   LYS B   1      10.993  91.586  64.882  1.00  0.00    -0.271 OA
BRANCH  16  18
ATOM     18  CA  LYS B   1      10.679  93.960  64.695  1.00  0.00     0.350 C 
BRANCH  18  19
ATOM     19  CB  LYS B   1      12.139  94.251  65.138  1.00  0.00     0.048 C 
BRANCH  19  20
ATOM     20  CG  LYS B   1      13.005  94.889  64.023  1.00  0.00     0.004 C 
BRANCH  20  21
ATOM     21  CD  LYS B   1      12.223  95.379  62.801  1.00  0.00     0.027 C 
BRANCH  21  22
ATOM     22  CE  LYS B   1      13.197  95.620  61.640  1.00  0.00     0.229 C 
BRANCH  22  23
ATOM     23  NZ  LYS B   1      12.462  96.176  60.491  1.00  0.00    -0.079 N 
ATOM     24  HZ3 LYS B   1      11.675  96.681  60.874  1.00  0.00     0.274 HD
ATOM     25  HZ2 LYS B   1      12.145  95.435  59.856  1.00  0.00     0.274 HD
ATOM     26  HZ1 LYS B   1      13.069  96.789  59.934  1.00  0.00     0.274 HD
ENDBRANCH  22  23
ENDBRANCH  21  22
ENDBRANCH  20  21
ENDBRANCH  19  20
ENDBRANCH  18  19
BRANCH  18  27
ATOM     27  N   LYS B   1       9.786  94.956  65.280  1.00  0.00     0.312 N 
ATOM     28  H   LYS B   1       9.461  94.624  66.241  1.00  0.00     0.359 HD
ENDBRANCH  18  27
ENDBRANCH  16  18
ENDBRANCH  13  14
BRANCH  13  29
ATOM     29  CB  CYS B   2       8.977  90.905  67.595  1.00  0.00     0.103 C 
BRANCH  29  30
ATOM     30  SG  CYS B   2       9.802  89.306  67.767  1.00  0.00    -0.180 SA
ATOM     31  HG  CYS B   2      10.543  89.622  68.827  1.00  0.00     0.101 HD
ENDBRANCH  29  30
ENDBRANCH  13  29
ENDBRANCH   8  13
ENDBRANCH   4   6
ENDBRANCH   1   2
BRANCH   1  32
ATOM     32  CB  GLU B   4       5.011  91.363  59.996  1.00  0.00     0.045 C 
BRANCH  32  33
ATOM     33  CG  GLU B   4       5.118  92.849  59.698  1.00  0.00     0.116 C 
BRANCH  33  34
ATOM     34  CD  GLU B   4       6.150  93.548  60.563  1.00  0.00     0.172 C 
ATOM     35  OE2 GLU B   4       5.886  93.734  61.769  1.00  0.00    -0.648 OA
ATOM     36  OE1 GLU B   4       7.222  93.908  60.033  1.00  0.00    -0.648 OA
ENDBRANCH  33  34
ENDBRANCH  32  33
ENDBRANCH   1  32
BRANCH   1  37
ATOM     37  C   GLU B   4       3.373  89.544  60.496  1.00  0.00     0.241 C 
ATOM     38  O   GLU B   4       3.159  89.171  59.342  1.00  0.00    -0.271 OA
ATOM     39  N   THR B   5       3.282  88.736  61.548  1.00  7.70    -0.344 N 
ATOM     40  H   THR B   5       3.464  89.098  62.441  1.00  0.23     0.163 HD
BRANCH  39  41
ATOM     41  CA  THR B   5       2.920  87.329  61.413  1.00  7.88     0.205 C 
BRANCH  41  42
ATOM     42  CB  THR B   5       4.175  86.455  61.409  1.00  4.05     0.146 C 
ATOM     43  CG2 THR B   5       4.627  86.064  60.018  1.00  3.72     0.042 C 
BRANCH  42  44
ATOM     44  OG1 THR B   5       5.254  87.126  62.037  1.00  7.31    -0.393 OA
ATOM     45  HG1 THR B   5       6.030  86.562  62.028  1.00  0.23     0.210 HD
ENDBRANCH  42  44
ENDBRANCH  41  42
BRANCH  41  46
ATOM     46  C   THR B   5       1.992  86.901  62.546  1.00  7.05     0.243 C 
ATOM     47  N   TRP B   6       2.519  86.890  63.765  1.00  0.00    -0.346 N 
ATOM     48  H   TRP B   6       3.457  87.150  63.884  1.00  0.23     0.163 HD
ATOM     49  O   THR B   5       0.824  86.586  62.318  1.00  6.06    -0.271 OA
BRANCH  47  50
ATOM     50  CA  TRP B   6       1.738  86.497  64.931  1.00  0.00     0.181 C 
BRANCH  50  51
ATOM     51  CB  TRP B   6       0.459  87.331  65.015  1.00  0.00     0.075 C 
BRANCH  51  52
ATOM     52  CG  TRP B   6       0.702  88.725  65.508  1.00  0.00    -0.028 A 
ATOM     53  CD2 TRP B   6       1.595  89.119  66.557  1.00  0.00    -0.002 A 
ATOM     54  CE2 TRP B   6       1.507  90.519  66.675  1.00  0.00     0.042 A 
ATOM     55  CE3 TRP B   6       2.458  88.423  67.408  1.00  0.00     0.014 A 
ATOM     56  CZ2 TRP B   6       2.251  91.234  67.609  1.00  0.00     0.030 A 
ATOM     57  NE1 TRP B   6       0.604  90.955  65.741  1.00  0.00    -0.365 N 
ATOM     58  CH2 TRP B   6       3.089  90.529  68.430  1.00  0.00     0.002 A 
ATOM     59  CZ3 TRP B   6       3.197  89.136  68.336  1.00  0.00     0.001 A 
ATOM     60  HE1 TRP B   6       0.341  91.888  65.594  1.00  0.23     0.165 HD
ATOM     61  CD1 TRP B   6       0.125  89.871  65.045  1.00  0.00     0.096 A 
ENDBRANCH  51  52
ENDBRANCH  50  51
BRANCH  50  62
ATOM     62  C   TRP B   6       1.395  85.012  64.882  1.00  0.00     0.241 C 
ATOM     63  N   VAL B   7       2.239  84.239  64.204  1.00  6.11    -0.344 N 
ATOM     64  H   VAL B   7       3.022  84.646  63.780  1.00  0.23     0.163 HD
ATOM     65  O   TRP B   6       0.388  84.578  65.441  1.00  0.00    -0.271 OA
BRANCH  63  66
ATOM     66  CA  VAL B   7       2.027  82.803  64.076  1.00  5.65     0.189 C 
BRANCH  66  67
ATOM     67  CB  VAL B   7       1.162  82.475  62.843  1.00  1.15     0.010 C 
ATOM     68  CG1 VAL B   7       1.564  83.346  61.662  1.00  4.96     0.012 C 
ATOM     69  CG2 VAL B   7       1.271  81.000  62.487  1.00  9.83     0.012 C 
ENDBRANCH  66  67
BRANCH  66  70
ATOM     70  C   VAL B   7       3.355  82.058  63.967  1.00  4.44     0.197 C 
ATOM     71  OXT VAL B   7       3.519  81.036  64.663  1.00  0.00    -0.646 OA
ATOM     72  O   VAL B   7       4.218  82.504  63.182  1.00  0.00    -0.646 OA
ENDBRANCH  66  70
ENDBRANCH  63  66
ENDBRANCH  50  62
ENDBRANCH  47  50
ENDBRANCH  41  46
ENDBRANCH  39  41
ENDBRANCH   1  37
TORSDOF 28
ENDMDL
