MODEL 1
REMARK VINA RESULT:      -6.3      0.000      0.000
REMARK WARNING: 32 MAX_TORS EXCEEDED!!!
REMARK  34 active torsions:
REMARK  status: ('A' for Active; 'I' for Inactive)
REMARK    1  A    between atoms: N_1  and  CA_2 
REMARK    2  A    between atoms: CA_2  and  CB_5 
REMARK    3  A    between atoms: CA_2  and  C_3 
REMARK       I    between atoms: C_3  and  N_14 
REMARK    4  A    between atoms: CB_5  and  CG_6 
REMARK    5  A    between atoms: CG_6  and  CD_7 
REMARK    6  A    between atoms: CD_7  and  CE_8 
REMARK    7  A    between atoms: CE_8  and  NZ_9 
REMARK    8  A    between atoms: N_14  and  CA_15 
REMARK    9  A    between atoms: CA_15  and  C_16 
REMARK   10  A    between atoms: CA_15  and  CB_18 
REMARK       I    between atoms: C_16  and  N_22 
REMARK   11  A    between atoms: CB_18  and  SG_19 
REMARK   12  A    between atoms: N_22  and  CA_23 
REMARK   13  A    between atoms: CA_23  and  CB_26 
REMARK   14  A    between atoms: CA_23  and  C_24 
REMARK       I    between atoms: C_24  and  N_41 
REMARK   15  A    between atoms: CB_26  and  CG_27 
REMARK   16  A    between atoms: CG_27  and  CD_28 
REMARK   17  A    between atoms: CD_28  and  CE_29 
REMARK   18  A    between atoms: CE_29  and  NZ_30 
REMARK   19  A    between atoms: CA_35  and  N_41 
REMARK   20  A    between atoms: CA_35  and  CB_37 
REMARK   21  A    between atoms: CA_35  and  C_36 
REMARK       I    between atoms: C_36  and  N_51 
REMARK   22  A    between atoms: CB_37  and  CG_38 
REMARK   23  A    between atoms: CG_38  and  CD_39 
REMARK   24  A    between atoms: CA_45  and  N_51 
REMARK   25  A    between atoms: CA_45  and  CB_47 
REMARK   26  A    between atoms: CA_45  and  C_46 
REMARK       I    between atoms: C_46  and  N_67 
REMARK   27  A    between atoms: CB_47  and  OG1_53 
REMARK   28  A    between atoms: CA_54  and  CB_56 
REMARK   29  A    between atoms: CA_54  and  N_67 
REMARK   30  A    between atoms: CA_54  and  C_55 
REMARK       I    between atoms: C_55  and  N_76 
REMARK   31  A    between atoms: CB_56  and  CG_57 
REMARK   32  A    between atoms: CA_70  and  N_76 
REMARK   33  A    between atoms: CA_70  and  CB_72 
REMARK   34  A    between atoms: CA_70  and  C_71 
ROOT
ATOM      1  CA  GLU B   4       2.243  89.472  63.892  1.00  0.00     0.177 C 
ENDROOT
BRANCH   1   2
ATOM      2  N   GLU B   4       3.319  90.458  63.819  1.00  0.00    -0.346 N 
ATOM      3  C   LYS B   3       4.531  90.200  64.303  1.00  0.00     0.241 C 
ATOM      4  O   LYS B   3       4.810  89.134  64.857  1.00  0.00    -0.271 OA
ATOM      5  H   GLU B   4       3.147  91.324  63.396  1.00  0.23     0.163 HD
BRANCH   3   6
ATOM      6  CA  LYS B   3       5.567  91.291  64.178  1.00  0.00     0.176 C 
BRANCH   6   7
ATOM      7  CB  LYS B   3       5.702  91.764  62.706  1.00  0.00     0.035 C 
BRANCH   7   8
ATOM      8  CG  LYS B   3       5.858  93.299  62.563  1.00  0.00     0.004 C 
BRANCH   8   9
ATOM      9  CD  LYS B   3       5.509  93.856  61.180  1.00  0.00     0.027 C 
BRANCH   9  10
ATOM     10  CE  LYS B   3       6.559  93.386  60.166  1.00  0.00     0.229 C 
BRANCH  10  11
ATOM     11  NZ  LYS B   3       7.849  94.036  60.458  1.00  0.00    -0.079 N 
ATOM     12  HZ3 LYS B   3       8.467  93.308  60.785  1.00  0.00     0.274 HD
ATOM     13  HZ2 LYS B   3       7.745  94.771  61.165  1.00  0.00     0.274 HD
ATOM     14  HZ1 LYS B   3       8.220  94.498  59.619  1.00  0.00     0.274 HD
ENDBRANCH  10  11
ENDBRANCH   9  10
ENDBRANCH   8   9
ENDBRANCH   7   8
ENDBRANCH   6   7
BRANCH   6  15
ATOM     15  N   LYS B   3       6.867  90.836  64.664  1.00  0.00    -0.346 N 
ATOM     16  C   CYS B   2       7.668  91.616  65.416  1.00  0.00     0.241 C 
ATOM     17  O   CYS B   2       7.354  92.759  65.733  1.00  0.00    -0.271 OA
ATOM     18  H   LYS B   3       7.168  89.929  64.434  1.00  0.00     0.163 HD
BRANCH  16  19
ATOM     19  CA  CYS B   2       8.965  90.991  65.877  1.00  0.00     0.185 C 
BRANCH  19  20
ATOM     20  CB  CYS B   2       9.066  90.911  67.412  1.00  0.00     0.105 C 
BRANCH  20  21
ATOM     21  SG  CYS B   2      10.306  89.693  67.909  1.00  0.00    -0.180 SA
ATOM     22  HG  CYS B   2       9.492  88.641  67.941  1.00  0.00     0.101 HD
ENDBRANCH  20  21
ENDBRANCH  19  20
BRANCH  19  23
ATOM     23  N   CYS B   2      10.113  91.740  65.374  1.00  0.00    -0.345 N 
ATOM     24  C   LYS B   1      10.979  91.196  64.513  1.00  0.00     0.254 C 
ATOM     25  O   LYS B   1      10.885  90.022  64.140  1.00  0.00    -0.271 OA
ATOM     26  H   CYS B   2      10.253  92.665  65.675  1.00  0.00     0.163 HD
BRANCH  24  27
ATOM     27  CA  LYS B   1      12.113  92.085  64.057  1.00  0.00     0.350 C 
BRANCH  27  28
ATOM     28  N   LYS B   1      12.433  93.086  65.070  1.00  0.00     0.312 N 
ATOM     29  H   LYS B   1      11.975  94.015  64.811  1.00  0.00     0.359 HD
ENDBRANCH  27  28
BRANCH  27  30
ATOM     30  CB  LYS B   1      13.381  91.246  63.738  1.00  0.00     0.048 C 
BRANCH  30  31
ATOM     31  CG  LYS B   1      14.699  92.049  63.873  1.00  0.00     0.004 C 
BRANCH  31  32
ATOM     32  CD  LYS B   1      15.299  92.529  62.549  1.00  0.00     0.027 C 
BRANCH  32  33
ATOM     33  CE  LYS B   1      15.254  94.063  62.500  1.00  0.00     0.229 C 
BRANCH  33  34
ATOM     34  NZ  LYS B   1      13.917  94.499  62.060  1.00  0.00    -0.079 N 
ATOM     35  HZ1 LYS B   1      13.987  95.322  61.449  1.00  0.00     0.274 HD
ATOM     36  HZ3 LYS B   1      13.395  94.704  62.900  1.00  0.00     0.274 HD
ATOM     37  HZ2 LYS B   1      13.450  93.773  61.508  1.00  0.00     0.274 HD
ENDBRANCH  33  34
ENDBRANCH  32  33
ENDBRANCH  31  32
ENDBRANCH  30  31
ENDBRANCH  27  30
ENDBRANCH  24  27
ENDBRANCH  19  23
ENDBRANCH  16  19
ENDBRANCH   6  15
ENDBRANCH   3   6
ENDBRANCH   1   2
BRANCH   1  38
ATOM     38  CB  GLU B   4       1.138  89.952  64.835  1.00  0.00     0.045 C 
BRANCH  38  39
ATOM     39  CG  GLU B   4       0.918  89.032  66.025  1.00  0.00     0.116 C 
BRANCH  39  40
ATOM     40  CD  GLU B   4       2.122  88.966  66.946  1.00  0.00     0.172 C 
ATOM     41  OE1 GLU B   4       2.653  87.854  67.148  1.00  0.00    -0.648 OA
ATOM     42  OE2 GLU B   4       2.532  90.025  67.464  1.00  0.00    -0.648 OA
ENDBRANCH  39  40
ENDBRANCH  38  39
ENDBRANCH   1  38
BRANCH   1  43
ATOM     43  C   GLU B   4       1.657  89.203  62.509  1.00  0.00     0.241 C 
ATOM     44  O   GLU B   4       0.539  88.703  62.384  1.00  0.00    -0.271 OA
ATOM     45  N   THR B   5       2.424  89.534  61.474  1.00  7.70    -0.344 N 
ATOM     46  H   THR B   5       3.307  89.926  61.643  1.00  0.23     0.163 HD
BRANCH  45  47
ATOM     47  CA  THR B   5       1.991  89.328  60.095  1.00  7.88     0.205 C 
BRANCH  47  48
ATOM     48  CB  THR B   5       2.955  90.016  59.128  1.00  4.05     0.146 C 
ATOM     49  CG2 THR B   5       4.238  90.473  59.787  1.00  3.72     0.042 C 
BRANCH  48  50
ATOM     50  OG1 THR B   5       3.305  89.146  58.066  1.00  7.31    -0.393 OA
ATOM     51  HG1 THR B   5       4.059  88.613  58.325  1.00  0.23     0.210 HD
ENDBRANCH  48  50
ENDBRANCH  47  48
BRANCH  47  52
ATOM     52  C   THR B   5       1.907  87.839  59.775  1.00  7.05     0.243 C 
ATOM     53  O   THR B   5       1.183  87.430  58.867  1.00  6.06    -0.271 OA
ATOM     54  N   TRP B   6       2.653  87.033  60.523  1.00  0.00    -0.346 N 
ATOM     55  H   TRP B   6       3.211  87.418  61.231  1.00  0.23     0.163 HD
BRANCH  54  56
ATOM     56  CA  TRP B   6       2.664  85.591  60.315  1.00  0.00     0.181 C 
BRANCH  56  57
ATOM     57  CB  TRP B   6       4.088  85.049  60.451  1.00  0.00     0.075 C 
BRANCH  57  58
ATOM     58  CG  TRP B   6       5.111  85.921  59.790  1.00  0.00    -0.028 A 
ATOM     59  CD2 TRP B   6       5.928  86.914  60.422  1.00  0.00    -0.002 A 
ATOM     60  CE2 TRP B   6       6.744  87.479  59.424  1.00  0.00     0.042 A 
ATOM     61  CE3 TRP B   6       6.046  87.381  61.734  1.00  0.00     0.014 A 
ATOM     62  CZ2 TRP B   6       7.666  88.486  59.699  1.00  0.00     0.030 A 
ATOM     63  NE1 TRP B   6       6.438  86.859  58.241  1.00  0.00    -0.365 N 
ATOM     64  CH2 TRP B   6       7.762  88.924  60.992  1.00  0.00     0.002 A 
ATOM     65  CZ3 TRP B   6       6.963  88.380  62.005  1.00  0.00     0.001 A 
ATOM     66  CD1 TRP B   6       5.456  85.925  58.469  1.00  0.00     0.096 A 
ATOM     67  HE1 TRP B   6       6.852  87.050  57.373  1.00  0.23     0.165 HD
ENDBRANCH  57  58
ENDBRANCH  56  57
BRANCH  56  68
ATOM     68  C   TRP B   6       1.738  84.890  61.303  1.00  0.00     0.241 C 
ATOM     69  N   VAL B   7       2.325  84.316  62.348  1.00  6.11    -0.344 N 
ATOM     70  H   VAL B   7       3.299  84.369  62.437  1.00  0.23     0.163 HD
ATOM     71  O   TRP B   6       0.521  84.867  61.119  1.00  0.00    -0.271 OA
BRANCH  69  72
ATOM     72  CA  VAL B   7       1.557  83.610  63.366  1.00  5.65     0.189 C 
BRANCH  72  73
ATOM     73  CB  VAL B   7       2.135  82.205  63.626  1.00  1.15     0.010 C 
ATOM     74  CG1 VAL B   7       1.529  81.193  62.665  1.00  4.96     0.012 C 
ATOM     75  CG2 VAL B   7       3.652  82.218  63.510  1.00  9.83     0.012 C 
ENDBRANCH  72  73
BRANCH  72  76
ATOM     76  C   VAL B   7       1.533  84.390  64.678  1.00  4.44     0.197 C 
ATOM     77  O   VAL B   7       2.057  85.523  64.699  1.00  0.00    -0.646 OA
ATOM     78  OXT VAL B   7       0.993  83.861  65.670  1.00  0.00    -0.646 OA
ENDBRANCH  72  76
ENDBRANCH  69  72
ENDBRANCH  56  68
ENDBRANCH  54  56
ENDBRANCH  47  52
ENDBRANCH  45  47
ENDBRANCH   1  43
TORSDOF 34
ENDMDL
MODEL 2
REMARK VINA RESULT:      -6.1      2.524      5.232
REMARK WARNING: 32 MAX_TORS EXCEEDED!!!
REMARK  34 active torsions:
REMARK  status: ('A' for Active; 'I' for Inactive)
REMARK    1  A    between atoms: N_1  and  CA_2 
REMARK    2  A    between atoms: CA_2  and  CB_5 
REMARK    3  A    between atoms: CA_2  and  C_3 
REMARK       I    between atoms: C_3  and  N_14 
REMARK    4  A    between atoms: CB_5  and  CG_6 
REMARK    5  A    between atoms: CG_6  and  CD_7 
REMARK    6  A    between atoms: CD_7  and  CE_8 
REMARK    7  A    between atoms: CE_8  and  NZ_9 
REMARK    8  A    between atoms: N_14  and  CA_15 
REMARK    9  A    between atoms: CA_15  and  C_16 
REMARK   10  A    between atoms: CA_15  and  CB_18 
REMARK       I    between atoms: C_16  and  N_22 
REMARK   11  A    between atoms: CB_18  and  SG_19 
REMARK   12  A    between atoms: N_22  and  CA_23 
REMARK   13  A    between atoms: CA_23  and  CB_26 
REMARK   14  A    between atoms: CA_23  and  C_24 
REMARK       I    between atoms: C_24  and  N_41 
REMARK   15  A    between atoms: CB_26  and  CG_27 
REMARK   16  A    between atoms: CG_27  and  CD_28 
REMARK   17  A    between atoms: CD_28  and  CE_29 
REMARK   18  A    between atoms: CE_29  and  NZ_30 
REMARK   19  A    between atoms: CA_35  and  N_41 
REMARK   20  A    between atoms: CA_35  and  CB_37 
REMARK   21  A    between atoms: CA_35  and  C_36 
REMARK       I    between atoms: C_36  and  N_51 
REMARK   22  A    between atoms: CB_37  and  CG_38 
REMARK   23  A    between atoms: CG_38  and  CD_39 
REMARK   24  A    between atoms: CA_45  and  N_51 
REMARK   25  A    between atoms: CA_45  and  CB_47 
REMARK   26  A    between atoms: CA_45  and  C_46 
REMARK       I    between atoms: C_46  and  N_67 
REMARK   27  A    between atoms: CB_47  and  OG1_53 
REMARK   28  A    between atoms: CA_54  and  CB_56 
REMARK   29  A    between atoms: CA_54  and  N_67 
REMARK   30  A    between atoms: CA_54  and  C_55 
REMARK       I    between atoms: C_55  and  N_76 
REMARK   31  A    between atoms: CB_56  and  CG_57 
REMARK   32  A    between atoms: CA_70  and  N_76 
REMARK   33  A    between atoms: CA_70  and  CB_72 
REMARK   34  A    between atoms: CA_70  and  C_71 
ROOT
ATOM      1  CA  GLU B   4       5.156  88.925  66.401  1.00  0.00     0.177 C 
ENDROOT
BRANCH   1   2
ATOM      2  N   GLU B   4       6.376  89.665  66.719  1.00  0.00    -0.346 N 
ATOM      3  C   LYS B   3       7.482  89.524  65.995  1.00  0.00     0.241 C 
ATOM      4  O   LYS B   3       7.553  88.750  65.037  1.00  0.00    -0.271 OA
ATOM      5  H   GLU B   4       6.375  90.288  67.475  1.00  0.23     0.163 HD
BRANCH   3   6
ATOM      6  CA  LYS B   3       8.686  90.334  66.414  1.00  0.00     0.176 C 
BRANCH   6   7
ATOM      7  CB  LYS B   3       8.254  91.637  67.139  1.00  0.00     0.035 C 
BRANCH   7   8
ATOM      8  CG  LYS B   3       7.909  92.796  66.172  1.00  0.00     0.004 C 
BRANCH   8   9
ATOM      9  CD  LYS B   3       6.430  93.194  66.145  1.00  0.00     0.027 C 
BRANCH   9  10
ATOM     10  CE  LYS B   3       5.933  93.193  64.694  1.00  0.00     0.229 C 
BRANCH  10  11
ATOM     11  NZ  LYS B   3       4.466  93.327  64.678  1.00  0.00    -0.079 N 
ATOM     12  HZ3 LYS B   3       4.097  92.456  65.033  1.00  0.00     0.274 HD
ATOM     13  HZ2 LYS B   3       4.118  93.512  63.732  1.00  0.00     0.274 HD
ATOM     14  HZ1 LYS B   3       4.169  94.124  65.253  1.00  0.00     0.274 HD
ENDBRANCH  10  11
ENDBRANCH   9  10
ENDBRANCH   8   9
ENDBRANCH   7   8
ENDBRANCH   6   7
BRANCH   6  15
ATOM     15  N   LYS B   3       9.516  90.672  65.261  1.00  0.00    -0.346 N 
ATOM     16  C   CYS B   2      10.858  90.749  65.337  1.00  0.00     0.241 C 
ATOM     17  O   CYS B   2      11.465  90.545  66.385  1.00  0.00    -0.271 OA
ATOM     18  H   LYS B   3       9.079  90.849  64.398  1.00  0.00     0.163 HD
BRANCH  16  19
ATOM     19  CA  CYS B   2      11.583  91.069  64.050  1.00  0.00     0.185 C 
BRANCH  19  20
ATOM     20  CB  CYS B   2      12.889  90.268  63.895  1.00  0.00     0.105 C 
BRANCH  20  21
ATOM     21  SG  CYS B   2      14.327  91.355  64.029  1.00  0.00    -0.180 SA
ATOM     22  HG  CYS B   2      14.875  91.039  62.858  1.00  0.00     0.101 HD
ENDBRANCH  20  21
ENDBRANCH  19  20
BRANCH  19  23
ATOM     23  N   CYS B   2      11.899  92.493  63.969  1.00  0.00    -0.345 N 
ATOM     24  C   LYS B   1      10.991  93.389  63.573  1.00  0.00     0.254 C 
ATOM     25  O   LYS B   1       9.858  93.058  63.206  1.00  0.00    -0.271 OA
ATOM     26  H   CYS B   2      12.801  92.799  64.211  1.00  0.00     0.163 HD
BRANCH  24  27
ATOM     27  CA  LYS B   1      11.441  94.831  63.551  1.00  0.00     0.350 C 
BRANCH  27  28
ATOM     28  N   LYS B   1      12.797  94.964  64.075  1.00  0.00     0.312 N 
ATOM     29  H   LYS B   1      12.807  95.688  64.859  1.00  0.00     0.359 HD
ENDBRANCH  27  28
BRANCH  27  30
ATOM     30  CB  LYS B   1      11.384  95.408  62.110  1.00  0.00     0.048 C 
BRANCH  30  31
ATOM     31  CG  LYS B   1      12.598  96.305  61.758  1.00  0.00     0.004 C 
BRANCH  31  32
ATOM     32  CD  LYS B   1      12.702  96.697  60.281  1.00  0.00     0.027 C 
BRANCH  32  33
ATOM     33  CE  LYS B   1      11.794  97.905  60.013  1.00  0.00     0.229 C 
BRANCH  33  34
ATOM     34  NZ  LYS B   1      10.573  97.456  59.324  1.00  0.00    -0.079 N 
ATOM     35  HZ1 LYS B   1      10.203  96.603  59.759  1.00  0.00     0.274 HD
ATOM     36  HZ3 LYS B   1      10.831  97.300  58.360  1.00  0.00     0.274 HD
ATOM     37  HZ2 LYS B   1       9.827  98.157  59.392  1.00  0.00     0.274 HD
ENDBRANCH  33  34
ENDBRANCH  32  33
ENDBRANCH  31  32
ENDBRANCH  30  31
ENDBRANCH  27  30
ENDBRANCH  24  27
ENDBRANCH  19  23
ENDBRANCH  16  19
ENDBRANCH   6  15
ENDBRANCH   3   6
ENDBRANCH   1   2
BRANCH   1  38
ATOM     38  CB  GLU B   4       4.299  88.741  67.654  1.00  0.00     0.045 C 
BRANCH  38  39
ATOM     39  CG  GLU B   4       3.817  87.314  67.853  1.00  0.00     0.116 C 
BRANCH  39  40
ATOM     40  CD  GLU B   4       2.477  87.050  67.191  1.00  0.00     0.172 C 
ATOM     41  OE1 GLU B   4       2.341  86.004  66.525  1.00  0.00    -0.648 OA
ATOM     42  OE2 GLU B   4       1.566  87.891  67.341  1.00  0.00    -0.648 OA
ENDBRANCH  39  40
ENDBRANCH  38  39
ENDBRANCH   1  38
BRANCH   1  43
ATOM     43  C   GLU B   4       4.348  89.644  65.325  1.00  0.00     0.241 C 
ATOM     44  O   GLU B   4       3.532  90.515  65.627  1.00  0.00    -0.271 OA
ATOM     45  N   THR B   5       4.580  89.270  64.070  1.00  7.70    -0.344 N 
ATOM     46  H   THR B   5       5.243  88.568  63.898  1.00  0.23     0.163 HD
BRANCH  45  47
ATOM     47  CA  THR B   5       3.875  89.871  62.942  1.00  7.88     0.205 C 
BRANCH  47  48
ATOM     48  CB  THR B   5       4.771  90.895  62.242  1.00  4.05     0.146 C 
ATOM     49  CG2 THR B   5       5.634  90.289  61.156  1.00  3.72     0.042 C 
BRANCH  48  50
ATOM     50  OG1 THR B   5       3.992  91.919  61.650  1.00  7.31    -0.393 OA
ATOM     51  HG1 THR B   5       3.908  91.753  60.708  1.00  0.23     0.210 HD
ENDBRANCH  48  50
ENDBRANCH  47  48
BRANCH  47  52
ATOM     52  C   THR B   5       3.435  88.800  61.950  1.00  7.05     0.243 C 
ATOM     53  O   THR B   5       2.669  89.073  61.026  1.00  6.06    -0.271 OA
ATOM     54  N   TRP B   6       3.926  87.580  62.145  1.00  0.00    -0.346 N 
ATOM     55  H   TRP B   6       4.533  87.424  62.898  1.00  0.23     0.163 HD
BRANCH  54  56
ATOM     56  CA  TRP B   6       3.585  86.471  61.265  1.00  0.00     0.181 C 
BRANCH  56  57
ATOM     57  CB  TRP B   6       2.068  86.375  61.098  1.00  0.00     0.075 C 
BRANCH  57  58
ATOM     58  CG  TRP B   6       1.510  85.067  61.568  1.00  0.00    -0.028 A 
ATOM     59  CD2 TRP B   6       2.238  83.995  62.179  1.00  0.00    -0.002 A 
ATOM     60  CE2 TRP B   6       1.313  82.972  62.463  1.00  0.00     0.042 A 
ATOM     61  CE3 TRP B   6       3.581  83.801  62.512  1.00  0.00     0.014 A 
ATOM     62  CZ2 TRP B   6       1.691  81.775  63.064  1.00  0.00     0.030 A 
ATOM     63  NE1 TRP B   6       0.081  83.402  62.044  1.00  0.00    -0.365 N 
ATOM     64  CH2 TRP B   6       3.012  81.610  63.380  1.00  0.00     0.002 A 
ATOM     65  CZ3 TRP B   6       3.954  82.611  63.110  1.00  0.00     0.001 A 
ATOM     66  CD1 TRP B   6       0.208  84.661  61.508  1.00  0.00     0.096 A 
ATOM     67  HE1 TRP B   6      -0.755  82.895  62.115  1.00  0.23     0.165 HD
ENDBRANCH  57  58
ENDBRANCH  56  57
BRANCH  56  68
ATOM     68  C   TRP B   6       4.255  86.629  59.903  1.00  0.00     0.241 C 
ATOM     69  N   VAL B   7       5.584  86.601  59.899  1.00  6.11    -0.344 N 
ATOM     70  H   VAL B   7       6.061  86.482  60.746  1.00  0.23     0.163 HD
ATOM     71  O   TRP B   6       3.582  86.778  58.883  1.00  0.00    -0.271 OA
BRANCH  69  72
ATOM     72  CA  VAL B   7       6.349  86.745  58.667  1.00  5.65     0.189 C 
BRANCH  72  73
ATOM     73  CB  VAL B   7       7.629  87.571  58.899  1.00  1.15     0.010 C 
ATOM     74  CG1 VAL B   7       7.489  88.956  58.285  1.00  4.96     0.012 C 
ATOM     75  CG2 VAL B   7       7.945  87.668  60.384  1.00  9.83     0.012 C 
ENDBRANCH  72  73
BRANCH  72  76
ATOM     76  C   VAL B   7       6.731  85.383  58.094  1.00  4.44     0.197 C 
ATOM     77  O   VAL B   7       6.609  85.207  56.863  1.00  0.00    -0.646 OA
ATOM     78  OXT VAL B   7       7.146  84.506  58.878  1.00  0.00    -0.646 OA
ENDBRANCH  72  76
ENDBRANCH  69  72
ENDBRANCH  56  68
ENDBRANCH  54  56
ENDBRANCH  47  52
ENDBRANCH  45  47
ENDBRANCH   1  43
TORSDOF 34
ENDMDL
MODEL 3
REMARK VINA RESULT:      -5.7      2.583      5.072
REMARK WARNING: 32 MAX_TORS EXCEEDED!!!
REMARK  34 active torsions:
REMARK  status: ('A' for Active; 'I' for Inactive)
REMARK    1  A    between atoms: N_1  and  CA_2 
REMARK    2  A    between atoms: CA_2  and  CB_5 
REMARK    3  A    between atoms: CA_2  and  C_3 
REMARK       I    between atoms: C_3  and  N_14 
REMARK    4  A    between atoms: CB_5  and  CG_6 
REMARK    5  A    between atoms: CG_6  and  CD_7 
REMARK    6  A    between atoms: CD_7  and  CE_8 
REMARK    7  A    between atoms: CE_8  and  NZ_9 
REMARK    8  A    between atoms: N_14  and  CA_15 
REMARK    9  A    between atoms: CA_15  and  C_16 
REMARK   10  A    between atoms: CA_15  and  CB_18 
REMARK       I    between atoms: C_16  and  N_22 
REMARK   11  A    between atoms: CB_18  and  SG_19 
REMARK   12  A    between atoms: N_22  and  CA_23 
REMARK   13  A    between atoms: CA_23  and  CB_26 
REMARK   14  A    between atoms: CA_23  and  C_24 
REMARK       I    between atoms: C_24  and  N_41 
REMARK   15  A    between atoms: CB_26  and  CG_27 
REMARK   16  A    between atoms: CG_27  and  CD_28 
REMARK   17  A    between atoms: CD_28  and  CE_29 
REMARK   18  A    between atoms: CE_29  and  NZ_30 
REMARK   19  A    between atoms: CA_35  and  N_41 
REMARK   20  A    between atoms: CA_35  and  CB_37 
REMARK   21  A    between atoms: CA_35  and  C_36 
REMARK       I    between atoms: C_36  and  N_51 
REMARK   22  A    between atoms: CB_37  and  CG_38 
REMARK   23  A    between atoms: CG_38  and  CD_39 
REMARK   24  A    between atoms: CA_45  and  N_51 
REMARK   25  A    between atoms: CA_45  and  CB_47 
REMARK   26  A    between atoms: CA_45  and  C_46 
REMARK       I    between atoms: C_46  and  N_67 
REMARK   27  A    between atoms: CB_47  and  OG1_53 
REMARK   28  A    between atoms: CA_54  and  CB_56 
REMARK   29  A    between atoms: CA_54  and  N_67 
REMARK   30  A    between atoms: CA_54  and  C_55 
REMARK       I    between atoms: C_55  and  N_76 
REMARK   31  A    between atoms: CB_56  and  CG_57 
REMARK   32  A    between atoms: CA_70  and  N_76 
REMARK   33  A    between atoms: CA_70  and  CB_72 
REMARK   34  A    between atoms: CA_70  and  C_71 
ROOT
ATOM      1  CA  GLU B   4       5.607  90.081  63.831  1.00  0.00     0.177 C 
ENDROOT
BRANCH   1   2
ATOM      2  N   GLU B   4       6.221  91.391  63.631  1.00  0.00    -0.346 N 
ATOM      3  C   LYS B   3       7.381  91.525  62.994  1.00  0.00     0.241 C 
ATOM      4  O   LYS B   3       8.012  90.560  62.556  1.00  0.00    -0.271 OA
ATOM      5  H   GLU B   4       5.764  92.191  63.966  1.00  0.23     0.163 HD
BRANCH   3   6
ATOM      6  CA  LYS B   3       7.927  92.925  62.847  1.00  0.00     0.176 C 
BRANCH   6   7
ATOM      7  CB  LYS B   3       7.611  93.501  61.441  1.00  0.00     0.035 C 
BRANCH   7   8
ATOM      8  CG  LYS B   3       6.309  92.935  60.821  1.00  0.00     0.004 C 
BRANCH   8   9
ATOM      9  CD  LYS B   3       5.218  93.976  60.553  1.00  0.00     0.027 C 
BRANCH   9  10
ATOM     10  CE  LYS B   3       4.246  94.006  61.739  1.00  0.00     0.229 C 
BRANCH  10  11
ATOM     11  NZ  LYS B   3       3.997  95.404  62.133  1.00  0.00    -0.079 N 
ATOM     12  HZ3 LYS B   3       4.348  95.979  61.380  1.00  0.00     0.274 HD
ATOM     13  HZ2 LYS B   3       4.468  95.633  63.014  1.00  0.00     0.274 HD
ATOM     14  HZ1 LYS B   3       2.996  95.563  62.294  1.00  0.00     0.274 HD
ENDBRANCH  10  11
ENDBRANCH   9  10
ENDBRANCH   8   9
ENDBRANCH   7   8
ENDBRANCH   6   7
BRANCH   6  15
ATOM     15  N   LYS B   3       9.370  92.950  63.070  1.00  0.00    -0.346 N 
ATOM     16  C   CYS B   2       9.910  92.886  64.302  1.00  0.00     0.241 C 
ATOM     17  O   CYS B   2       9.219  92.808  65.314  1.00  0.00    -0.271 OA
ATOM     18  H   LYS B   3       9.969  93.016  62.293  1.00  0.00     0.163 HD
BRANCH  16  19
ATOM     19  CA  CYS B   2      11.420  92.881  64.369  1.00  0.00     0.185 C 
BRANCH  19  20
ATOM     20  CB  CYS B   2      11.946  92.453  65.753  1.00  0.00     0.105 C 
BRANCH  20  21
ATOM     21  SG  CYS B   2      12.943  90.951  65.622  1.00  0.00    -0.180 SA
ATOM     22  HG  CYS B   2      12.011  90.191  65.053  1.00  0.00     0.101 HD
ENDBRANCH  20  21
ENDBRANCH  19  20
BRANCH  19  23
ATOM     23  N   CYS B   2      11.961  94.200  64.055  1.00  0.00    -0.345 N 
ATOM     24  C   LYS B   1      12.977  94.353  63.200  1.00  0.00     0.254 C 
ATOM     25  O   LYS B   1      13.544  93.389  62.675  1.00  0.00    -0.271 OA
ATOM     26  H   CYS B   2      11.569  94.995  64.481  1.00  0.00     0.163 HD
BRANCH  24  27
ATOM     27  CA  LYS B   1      13.429  95.773  62.948  1.00  0.00     0.350 C 
BRANCH  27  28
ATOM     28  N   LYS B   1      14.635  96.081  63.711  1.00  0.00     0.312 N 
ATOM     29  H   LYS B   1      14.460  96.933  64.328  1.00  0.00     0.359 HD
ENDBRANCH  27  28
BRANCH  27  30
ATOM     30  CB  LYS B   1      13.698  96.009  61.436  1.00  0.00     0.048 C 
BRANCH  30  31
ATOM     31  CG  LYS B   1      12.557  96.773  60.720  1.00  0.00     0.004 C 
BRANCH  31  32
ATOM     32  CD  LYS B   1      12.823  97.095  59.247  1.00  0.00     0.027 C 
BRANCH  32  33
ATOM     33  CE  LYS B   1      11.628  97.869  58.674  1.00  0.00     0.229 C 
BRANCH  33  34
ATOM     34  NZ  LYS B   1      10.375  97.249  59.139  1.00  0.00    -0.079 N 
ATOM     35  HZ1 LYS B   1       9.578  97.877  58.978  1.00  0.00     0.274 HD
ATOM     36  HZ3 LYS B   1      10.502  97.055  60.122  1.00  0.00     0.274 HD
ATOM     37  HZ2 LYS B   1      10.169  96.389  58.621  1.00  0.00     0.274 HD
ENDBRANCH  33  34
ENDBRANCH  32  33
ENDBRANCH  31  32
ENDBRANCH  30  31
ENDBRANCH  27  30
ENDBRANCH  24  27
ENDBRANCH  19  23
ENDBRANCH  16  19
ENDBRANCH   6  15
ENDBRANCH   3   6
ENDBRANCH   1   2
BRANCH   1  38
ATOM     38  CB  GLU B   4       5.317  89.844  65.313  1.00  0.00     0.045 C 
BRANCH  38  39
ATOM     39  CG  GLU B   4       5.299  91.121  66.137  1.00  0.00     0.116 C 
BRANCH  39  40
ATOM     40  CD  GLU B   4       3.994  91.883  66.009  1.00  0.00     0.172 C 
ATOM     41  OE1 GLU B   4       3.997  92.963  65.382  1.00  0.00    -0.648 OA
ATOM     42  OE2 GLU B   4       2.970  91.400  66.535  1.00  0.00    -0.648 OA
ENDBRANCH  39  40
ENDBRANCH  38  39
ENDBRANCH   1  38
BRANCH   1  43
ATOM     43  C   GLU B   4       4.315  89.959  63.028  1.00  0.00     0.241 C 
ATOM     44  O   GLU B   4       3.244  89.726  63.589  1.00  0.00    -0.271 OA
ATOM     45  N   THR B   5       4.426  90.113  61.712  1.00  7.70    -0.344 N 
ATOM     46  H   THR B   5       5.310  90.295  61.327  1.00  0.23     0.163 HD
BRANCH  45  47
ATOM     47  CA  THR B   5       3.272  90.018  60.823  1.00  7.88     0.205 C 
BRANCH  47  48
ATOM     48  CB  THR B   5       3.401  91.023  59.676  1.00  4.05     0.146 C 
ATOM     49  CG2 THR B   5       4.544  90.711  58.735  1.00  3.72     0.042 C 
BRANCH  48  50
ATOM     50  OG1 THR B   5       2.211  91.062  58.909  1.00  7.31    -0.393 OA
ATOM     51  HG1 THR B   5       1.452  91.089  59.496  1.00  0.23     0.210 HD
ENDBRANCH  48  50
ENDBRANCH  47  48
BRANCH  47  52
ATOM     52  C   THR B   5       3.139  88.605  60.264  1.00  7.05     0.243 C 
ATOM     53  O   THR B   5       2.791  88.419  59.098  1.00  6.06    -0.271 OA
ATOM     54  N   TRP B   6       3.421  87.613  61.101  1.00  0.00    -0.346 N 
ATOM     55  H   TRP B   6       3.694  87.823  62.018  1.00  0.23     0.163 HD
BRANCH  54  56
ATOM     56  CA  TRP B   6       3.336  86.218  60.687  1.00  0.00     0.181 C 
BRANCH  56  57
ATOM     57  CB  TRP B   6       1.882  85.840  60.399  1.00  0.00     0.075 C 
BRANCH  57  58
ATOM     58  CG  TRP B   6       1.377  84.743  61.284  1.00  0.00    -0.028 A 
ATOM     59  CD2 TRP B   6       2.167  83.857  62.086  1.00  0.00    -0.002 A 
ATOM     60  CE2 TRP B   6       1.278  82.995  62.755  1.00  0.00     0.042 A 
ATOM     61  CE3 TRP B   6       3.540  83.709  62.302  1.00  0.00     0.014 A 
ATOM     62  CZ2 TRP B   6       1.718  82.001  63.625  1.00  0.00     0.030 A 
ATOM     63  NE1 TRP B   6       0.006  83.341  62.377  1.00  0.00    -0.365 N 
ATOM     64  CH2 TRP B   6       3.067  81.877  63.818  1.00  0.00     0.002 A 
ATOM     65  CZ3 TRP B   6       3.975  82.720  63.167  1.00  0.00     0.001 A 
ATOM     66  CD1 TRP B   6       0.075  84.391  61.494  1.00  0.00     0.096 A 
ATOM     67  HE1 TRP B   6      -0.818  82.910  62.687  1.00  0.23     0.165 HD
ENDBRANCH  57  58
ENDBRANCH  56  57
BRANCH  56  68
ATOM     68  C   TRP B   6       4.200  85.960  59.457  1.00  0.00     0.241 C 
ATOM     69  N   VAL B   7       5.468  86.350  59.543  1.00  6.11    -0.344 N 
ATOM     70  H   VAL B   7       5.784  86.772  60.368  1.00  0.23     0.163 HD
ATOM     71  O   TRP B   6       3.727  85.425  58.455  1.00  0.00    -0.271 OA
BRANCH  69  72
ATOM     72  CA  VAL B   7       6.401  86.166  58.438  1.00  5.65     0.189 C 
BRANCH  72  73
ATOM     73  CB  VAL B   7       7.400  87.337  58.351  1.00  1.15     0.010 C 
ATOM     74  CG1 VAL B   7       6.909  88.385  57.363  1.00  4.96     0.012 C 
ATOM     75  CG2 VAL B   7       7.626  87.954  59.724  1.00  9.83     0.012 C 
ENDBRANCH  72  73
BRANCH  72  76
ATOM     76  C   VAL B   7       7.176  84.860  58.583  1.00  4.44     0.197 C 
ATOM     77  O   VAL B   7       7.174  84.294  59.696  1.00  0.00    -0.646 OA
ATOM     78  OXT VAL B   7       7.778  84.415  57.585  1.00  0.00    -0.646 OA
ENDBRANCH  72  76
ENDBRANCH  69  72
ENDBRANCH  56  68
ENDBRANCH  54  56
ENDBRANCH  47  52
ENDBRANCH  45  47
ENDBRANCH   1  43
TORSDOF 34
ENDMDL
MODEL 4
REMARK VINA RESULT:      -5.6      2.520      5.082
REMARK WARNING: 32 MAX_TORS EXCEEDED!!!
REMARK  34 active torsions:
REMARK  status: ('A' for Active; 'I' for Inactive)
REMARK    1  A    between atoms: N_1  and  CA_2 
REMARK    2  A    between atoms: CA_2  and  CB_5 
REMARK    3  A    between atoms: CA_2  and  C_3 
REMARK       I    between atoms: C_3  and  N_14 
REMARK    4  A    between atoms: CB_5  and  CG_6 
REMARK    5  A    between atoms: CG_6  and  CD_7 
REMARK    6  A    between atoms: CD_7  and  CE_8 
REMARK    7  A    between atoms: CE_8  and  NZ_9 
REMARK    8  A    between atoms: N_14  and  CA_15 
REMARK    9  A    between atoms: CA_15  and  C_16 
REMARK   10  A    between atoms: CA_15  and  CB_18 
REMARK       I    between atoms: C_16  and  N_22 
REMARK   11  A    between atoms: CB_18  and  SG_19 
REMARK   12  A    between atoms: N_22  and  CA_23 
REMARK   13  A    between atoms: CA_23  and  CB_26 
REMARK   14  A    between atoms: CA_23  and  C_24 
REMARK       I    between atoms: C_24  and  N_41 
REMARK   15  A    between atoms: CB_26  and  CG_27 
REMARK   16  A    between atoms: CG_27  and  CD_28 
REMARK   17  A    between atoms: CD_28  and  CE_29 
REMARK   18  A    between atoms: CE_29  and  NZ_30 
REMARK   19  A    between atoms: CA_35  and  N_41 
REMARK   20  A    between atoms: CA_35  and  CB_37 
REMARK   21  A    between atoms: CA_35  and  C_36 
REMARK       I    between atoms: C_36  and  N_51 
REMARK   22  A    between atoms: CB_37  and  CG_38 
REMARK   23  A    between atoms: CG_38  and  CD_39 
REMARK   24  A    between atoms: CA_45  and  N_51 
REMARK   25  A    between atoms: CA_45  and  CB_47 
REMARK   26  A    between atoms: CA_45  and  C_46 
REMARK       I    between atoms: C_46  and  N_67 
REMARK   27  A    between atoms: CB_47  and  OG1_53 
REMARK   28  A    between atoms: CA_54  and  CB_56 
REMARK   29  A    between atoms: CA_54  and  N_67 
REMARK   30  A    between atoms: CA_54  and  C_55 
REMARK       I    between atoms: C_55  and  N_76 
REMARK   31  A    between atoms: CB_56  and  CG_57 
REMARK   32  A    between atoms: CA_70  and  N_76 
REMARK   33  A    between atoms: CA_70  and  CB_72 
REMARK   34  A    between atoms: CA_70  and  C_71 
ROOT
ATOM      1  CA  GLU B   4       5.789  90.195  63.973  1.00  0.00     0.177 C 
ENDROOT
BRANCH   1   2
ATOM      2  N   GLU B   4       6.517  91.443  63.755  1.00  0.00    -0.346 N 
ATOM      3  C   LYS B   3       7.738  91.453  63.229  1.00  0.00     0.241 C 
ATOM      4  O   LYS B   3       8.333  90.418  62.916  1.00  0.00    -0.271 OA
ATOM      5  H   GLU B   4       6.091  92.293  63.993  1.00  0.23     0.163 HD
BRANCH   3   6
ATOM      6  CA  LYS B   3       8.399  92.799  63.050  1.00  0.00     0.176 C 
BRANCH   6   7
ATOM      7  CB  LYS B   3       8.087  93.391  61.650  1.00  0.00     0.035 C 
BRANCH   7   8
ATOM      8  CG  LYS B   3       6.737  92.907  61.063  1.00  0.00     0.004 C 
BRANCH   8   9
ATOM      9  CD  LYS B   3       5.742  94.023  60.730  1.00  0.00     0.027 C 
BRANCH   9  10
ATOM     10  CE  LYS B   3       4.491  93.862  61.603  1.00  0.00     0.229 C 
BRANCH  10  11
ATOM     11  NZ  LYS B   3       4.402  94.991  62.545  1.00  0.00    -0.079 N 
ATOM     12  HZ3 LYS B   3       4.145  94.596  63.439  1.00  0.00     0.274 HD
ATOM     13  HZ2 LYS B   3       3.707  95.679  62.238  1.00  0.00     0.274 HD
ATOM     14  HZ1 LYS B   3       5.296  95.492  62.596  1.00  0.00     0.274 HD
ENDBRANCH  10  11
ENDBRANCH   9  10
ENDBRANCH   8   9
ENDBRANCH   7   8
ENDBRANCH   6   7
BRANCH   6  15
ATOM     15  N   LYS B   3       9.845  92.698  63.224  1.00  0.00    -0.346 N 
ATOM     16  C   CYS B   2      10.433  92.787  64.433  1.00  0.00     0.241 C 
ATOM     17  O   CYS B   2       9.787  92.965  65.461  1.00  0.00    -0.271 OA
ATOM     18  H   LYS B   3      10.410  92.560  62.431  1.00  0.00     0.163 HD
BRANCH  16  19
ATOM     19  CA  CYS B   2      11.936  92.624  64.457  1.00  0.00     0.185 C 
BRANCH  19  20
ATOM     20  CB  CYS B   2      12.471  92.318  65.869  1.00  0.00     0.105 C 
BRANCH  20  21
ATOM     21  SG  CYS B   2      13.224  90.675  65.926  1.00  0.00    -0.180 SA
ATOM     22  HG  CYS B   2      14.187  90.971  66.795  1.00  0.00     0.101 HD
ENDBRANCH  20  21
ENDBRANCH  19  20
BRANCH  19  23
ATOM     23  N   CYS B   2      12.600  93.825  63.959  1.00  0.00    -0.345 N 
ATOM     24  C   LYS B   1      13.647  93.752  63.132  1.00  0.00     0.254 C 
ATOM     25  O   LYS B   1      14.138  92.672  62.787  1.00  0.00    -0.271 OA
ATOM     26  H   CYS B   2      12.270  94.708  64.239  1.00  0.00     0.163 HD
BRANCH  24  27
ATOM     27  CA  LYS B   1      14.230  95.069  62.675  1.00  0.00     0.350 C 
BRANCH  27  28
ATOM     28  N   LYS B   1      13.634  95.496  61.413  1.00  0.00     0.312 N 
ATOM     29  H   LYS B   1      12.843  96.186  61.606  1.00  0.00     0.359 HD
ENDBRANCH  27  28
BRANCH  27  30
ATOM     30  CB  LYS B   1      14.016  96.172  63.748  1.00  0.00     0.048 C 
BRANCH  30  31
ATOM     31  CG  LYS B   1      15.322  96.899  64.153  1.00  0.00     0.004 C 
BRANCH  31  32
ATOM     32  CD  LYS B   1      15.150  97.989  65.215  1.00  0.00     0.027 C 
BRANCH  32  33
ATOM     33  CE  LYS B   1      16.529  98.549  65.592  1.00  0.00     0.229 C 
BRANCH  33  34
ATOM     34  NZ  LYS B   1      17.487  97.440  65.731  1.00  0.00    -0.079 N 
ATOM     35  HZ1 LYS B   1      18.452  97.793  65.740  1.00  0.00     0.274 HD
ATOM     36  HZ3 LYS B   1      17.325  96.824  64.947  1.00  0.00     0.274 HD
ATOM     37  HZ2 LYS B   1      17.358  96.942  66.618  1.00  0.00     0.274 HD
ENDBRANCH  33  34
ENDBRANCH  32  33
ENDBRANCH  31  32
ENDBRANCH  30  31
ENDBRANCH  27  30
ENDBRANCH  24  27
ENDBRANCH  19  23
ENDBRANCH  16  19
ENDBRANCH   6  15
ENDBRANCH   3   6
ENDBRANCH   1   2
BRANCH   1  38
ATOM     38  CB  GLU B   4       5.441  90.028  65.453  1.00  0.00     0.045 C 
BRANCH  38  39
ATOM     39  CG  GLU B   4       5.541  91.320  66.247  1.00  0.00     0.116 C 
BRANCH  39  40
ATOM     40  CD  GLU B   4       4.454  92.315  65.885  1.00  0.00     0.172 C 
ATOM     41  OE1 GLU B   4       4.779  93.350  65.267  1.00  0.00    -0.648 OA
ATOM     42  OE2 GLU B   4       3.279  92.058  66.221  1.00  0.00    -0.648 OA
ENDBRANCH  39  40
ENDBRANCH  38  39
ENDBRANCH   1  38
BRANCH   1  43
ATOM     43  C   GLU B   4       4.514  90.156  63.137  1.00  0.00     0.241 C 
ATOM     44  O   GLU B   4       3.411  90.052  63.675  1.00  0.00    -0.271 OA
ATOM     45  N   THR B   5       4.674  90.235  61.819  1.00  7.70    -0.344 N 
ATOM     46  H   THR B   5       5.581  90.314  61.455  1.00  0.23     0.163 HD
BRANCH  45  47
ATOM     47  CA  THR B   5       3.540  90.206  60.900  1.00  7.88     0.205 C 
BRANCH  47  48
ATOM     48  CB  THR B   5       3.766  91.185  59.748  1.00  4.05     0.146 C 
ATOM     49  CG2 THR B   5       4.913  90.789  58.843  1.00  3.72     0.042 C 
BRANCH  48  50
ATOM     50  OG1 THR B   5       2.604  91.291  58.945  1.00  7.31    -0.393 OA
ATOM     51  HG1 THR B   5       1.832  91.374  59.509  1.00  0.23     0.210 HD
ENDBRANCH  48  50
ENDBRANCH  47  48
BRANCH  47  52
ATOM     52  C   THR B   5       3.329  88.798  60.353  1.00  7.05     0.243 C 
ATOM     53  O   THR B   5       3.000  88.621  59.180  1.00  6.06    -0.271 OA
ATOM     54  N   TRP B   6       3.521  87.799  61.208  1.00  0.00    -0.346 N 
ATOM     55  H   TRP B   6       3.783  88.002  62.130  1.00  0.23     0.163 HD
BRANCH  54  56
ATOM     56  CA  TRP B   6       3.355  86.408  60.806  1.00  0.00     0.181 C 
BRANCH  56  57
ATOM     57  CB  TRP B   6       1.878  86.107  60.547  1.00  0.00     0.075 C 
BRANCH  57  58
ATOM     58  CG  TRP B   6       1.381  84.918  61.312  1.00  0.00    -0.028 A 
ATOM     59  CD2 TRP B   6       2.176  83.980  62.048  1.00  0.00    -0.002 A 
ATOM     60  CE2 TRP B   6       1.294  83.037  62.609  1.00  0.00     0.042 A 
ATOM     61  CE3 TRP B   6       3.546  83.846  62.285  1.00  0.00     0.014 A 
ATOM     62  CZ2 TRP B   6       1.740  81.977  63.393  1.00  0.00     0.030 A 
ATOM     63  NE1 TRP B   6       0.023  83.386  62.232  1.00  0.00    -0.365 N 
ATOM     64  CH2 TRP B   6       3.086  81.869  63.610  1.00  0.00     0.002 A 
ATOM     65  CZ3 TRP B   6       3.987  82.792  63.065  1.00  0.00     0.001 A 
ATOM     66  CD1 TRP B   6       0.085  84.516  61.453  1.00  0.00     0.096 A 
ATOM     67  HE1 TRP B   6      -0.797  82.907  62.477  1.00  0.23     0.165 HD
ENDBRANCH  57  58
ENDBRANCH  56  57
BRANCH  56  68
ATOM     68  C   TRP B   6       4.181  86.097  59.563  1.00  0.00     0.241 C 
ATOM     69  N   VAL B   7       5.473  86.403  59.628  1.00  6.11    -0.344 N 
ATOM     70  H   VAL B   7       5.828  86.803  60.449  1.00  0.23     0.163 HD
ATOM     71  O   TRP B   6       3.659  85.594  58.568  1.00  0.00    -0.271 OA
BRANCH  69  72
ATOM     72  CA  VAL B   7       6.375  86.161  58.510  1.00  5.65     0.189 C 
BRANCH  72  73
ATOM     73  CB  VAL B   7       7.380  87.318  58.343  1.00  1.15     0.010 C 
ATOM     74  CG1 VAL B   7       6.836  88.362  57.378  1.00  4.96     0.012 C 
ATOM     75  CG2 VAL B   7       7.705  87.946  59.690  1.00  9.83     0.012 C 
ENDBRANCH  72  73
BRANCH  72  76
ATOM     76  C   VAL B   7       7.144  84.856  58.694  1.00  4.44     0.197 C 
ATOM     77  O   VAL B   7       7.118  84.311  59.818  1.00  0.00    -0.646 OA
ATOM     78  OXT VAL B   7       7.766  84.392  57.717  1.00  0.00    -0.646 OA
ENDBRANCH  72  76
ENDBRANCH  69  72
ENDBRANCH  56  68
ENDBRANCH  54  56
ENDBRANCH  47  52
ENDBRANCH  45  47
ENDBRANCH   1  43
TORSDOF 34
ENDMDL
MODEL 5
REMARK VINA RESULT:      -5.6      2.958      5.586
REMARK WARNING: 32 MAX_TORS EXCEEDED!!!
REMARK  34 active torsions:
REMARK  status: ('A' for Active; 'I' for Inactive)
REMARK    1  A    between atoms: N_1  and  CA_2 
REMARK    2  A    between atoms: CA_2  and  CB_5 
REMARK    3  A    between atoms: CA_2  and  C_3 
REMARK       I    between atoms: C_3  and  N_14 
REMARK    4  A    between atoms: CB_5  and  CG_6 
REMARK    5  A    between atoms: CG_6  and  CD_7 
REMARK    6  A    between atoms: CD_7  and  CE_8 
REMARK    7  A    between atoms: CE_8  and  NZ_9 
REMARK    8  A    between atoms: N_14  and  CA_15 
REMARK    9  A    between atoms: CA_15  and  C_16 
REMARK   10  A    between atoms: CA_15  and  CB_18 
REMARK       I    between atoms: C_16  and  N_22 
REMARK   11  A    between atoms: CB_18  and  SG_19 
REMARK   12  A    between atoms: N_22  and  CA_23 
REMARK   13  A    between atoms: CA_23  and  CB_26 
REMARK   14  A    between atoms: CA_23  and  C_24 
REMARK       I    between atoms: C_24  and  N_41 
REMARK   15  A    between atoms: CB_26  and  CG_27 
REMARK   16  A    between atoms: CG_27  and  CD_28 
REMARK   17  A    between atoms: CD_28  and  CE_29 
REMARK   18  A    between atoms: CE_29  and  NZ_30 
REMARK   19  A    between atoms: CA_35  and  N_41 
REMARK   20  A    between atoms: CA_35  and  CB_37 
REMARK   21  A    between atoms: CA_35  and  C_36 
REMARK       I    between atoms: C_36  and  N_51 
REMARK   22  A    between atoms: CB_37  and  CG_38 
REMARK   23  A    between atoms: CG_38  and  CD_39 
REMARK   24  A    between atoms: CA_45  and  N_51 
REMARK   25  A    between atoms: CA_45  and  CB_47 
REMARK   26  A    between atoms: CA_45  and  C_46 
REMARK       I    between atoms: C_46  and  N_67 
REMARK   27  A    between atoms: CB_47  and  OG1_53 
REMARK   28  A    between atoms: CA_54  and  CB_56 
REMARK   29  A    between atoms: CA_54  and  N_67 
REMARK   30  A    between atoms: CA_54  and  C_55 
REMARK       I    between atoms: C_55  and  N_76 
REMARK   31  A    between atoms: CB_56  and  CG_57 
REMARK   32  A    between atoms: CA_70  and  N_76 
REMARK   33  A    between atoms: CA_70  and  CB_72 
REMARK   34  A    between atoms: CA_70  and  C_71 
ROOT
ATOM      1  CA  GLU B   4       6.357  89.139  65.281  1.00  0.00     0.177 C 
ENDROOT
BRANCH   1   2
ATOM      2  N   GLU B   4       7.199  90.316  65.484  1.00  0.00    -0.346 N 
ATOM      3  C   LYS B   3       8.421  90.393  64.966  1.00  0.00     0.241 C 
ATOM      4  O   LYS B   3       8.921  89.477  64.308  1.00  0.00    -0.271 OA
ATOM      5  H   GLU B   4       6.852  91.069  66.006  1.00  0.23     0.163 HD
BRANCH   3   6
ATOM      6  CA  LYS B   3       9.207  91.653  65.241  1.00  0.00     0.176 C 
BRANCH   6   7
ATOM      7  CB  LYS B   3       8.301  92.909  65.130  1.00  0.00     0.035 C 
BRANCH   7   8
ATOM      8  CG  LYS B   3       7.633  93.067  63.741  1.00  0.00     0.004 C 
BRANCH   8   9
ATOM      9  CD  LYS B   3       6.110  93.219  63.771  1.00  0.00     0.027 C 
BRANCH   9  10
ATOM     10  CE  LYS B   3       5.647  93.380  65.225  1.00  0.00     0.229 C 
BRANCH  10  11
ATOM     11  NZ  LYS B   3       4.346  92.710  65.402  1.00  0.00    -0.079 N 
ATOM     12  HZ3 LYS B   3       3.644  93.366  65.091  1.00  0.00     0.274 HD
ATOM     13  HZ2 LYS B   3       4.192  92.447  66.380  1.00  0.00     0.274 HD
ATOM     14  HZ1 LYS B   3       4.312  91.837  64.863  1.00  0.00     0.274 HD
ENDBRANCH  10  11
ENDBRANCH   9  10
ENDBRANCH   8   9
ENDBRANCH   7   8
ENDBRANCH   6   7
BRANCH   6  15
ATOM     15  N   LYS B   3      10.331  91.781  64.319  1.00  0.00    -0.346 N 
ATOM     16  C   CYS B   2      11.539  92.228  64.713  1.00  0.00     0.241 C 
ATOM     17  O   CYS B   2      11.765  92.560  65.873  1.00  0.00    -0.271 OA
ATOM     18  H   LYS B   3      10.202  91.532  63.376  1.00  0.00     0.163 HD
BRANCH  16  19
ATOM     19  CA  CYS B   2      12.615  92.267  63.652  1.00  0.00     0.185 C 
BRANCH  19  20
ATOM     20  CB  CYS B   2      13.868  91.467  64.055  1.00  0.00     0.105 C 
BRANCH  20  21
ATOM     21  SG  CYS B   2      15.313  92.029  63.125  1.00  0.00    -0.180 SA
ATOM     22  HG  CYS B   2      15.045  91.367  62.002  1.00  0.00     0.101 HD
ENDBRANCH  20  21
ENDBRANCH  19  20
BRANCH  19  23
ATOM     23  N   CYS B   2      13.014  93.641  63.363  1.00  0.00    -0.345 N 
ATOM     24  C   LYS B   1      12.152  94.528  62.857  1.00  0.00     0.254 C 
ATOM     25  O   LYS B   1      10.993  94.221  62.559  1.00  0.00    -0.271 OA
ATOM     26  H   CYS B   2      13.939  93.921  63.545  1.00  0.00     0.163 HD
BRANCH  24  27
ATOM     27  CA  LYS B   1      12.688  95.921  62.622  1.00  0.00     0.350 C 
BRANCH  27  28
ATOM     28  N   LYS B   1      13.929  96.135  63.360  1.00  0.00     0.312 N 
ATOM     29  H   LYS B   1      14.536  96.845  62.842  1.00  0.00     0.359 HD
ENDBRANCH  27  28
BRANCH  27  30
ATOM     30  CB  LYS B   1      12.935  96.173  61.110  1.00  0.00     0.048 C 
BRANCH  30  31
ATOM     31  CG  LYS B   1      12.192  97.418  60.563  1.00  0.00     0.004 C 
BRANCH  31  32
ATOM     32  CD  LYS B   1      12.110  97.500  59.036  1.00  0.00     0.027 C 
BRANCH  32  33
ATOM     33  CE  LYS B   1      10.828  98.243  58.638  1.00  0.00     0.229 C 
BRANCH  33  34
ATOM     34  NZ  LYS B   1      10.221  98.849  59.835  1.00  0.00    -0.079 N 
ATOM     35  HZ1 LYS B   1      10.899  98.890  60.605  1.00  0.00     0.274 HD
ATOM     36  HZ3 LYS B   1       9.424  98.275  60.073  1.00  0.00     0.274 HD
ATOM     37  HZ2 LYS B   1       9.932  99.817  59.659  1.00  0.00     0.274 HD
ENDBRANCH  33  34
ENDBRANCH  32  33
ENDBRANCH  31  32
ENDBRANCH  30  31
ENDBRANCH  27  30
ENDBRANCH  24  27
ENDBRANCH  19  23
ENDBRANCH  16  19
ENDBRANCH   6  15
ENDBRANCH   3   6
ENDBRANCH   1   2
BRANCH   1  38
ATOM     38  CB  GLU B   4       5.918  88.555  66.624  1.00  0.00     0.045 C 
BRANCH  38  39
ATOM     39  CG  GLU B   4       6.723  89.078  67.803  1.00  0.00     0.116 C 
BRANCH  39  40
ATOM     40  CD  GLU B   4       7.704  88.055  68.343  1.00  0.00     0.172 C 
ATOM     41  OE1 GLU B   4       7.688  86.905  67.859  1.00  0.00    -0.648 OA
ATOM     42  OE2 GLU B   4       8.487  88.406  69.251  1.00  0.00    -0.648 OA
ENDBRANCH  39  40
ENDBRANCH  38  39
ENDBRANCH   1  38
BRANCH   1  43
ATOM     43  C   GLU B   4       5.128  89.488  64.446  1.00  0.00     0.241 C 
ATOM     44  O   GLU B   4       4.010  89.533  64.958  1.00  0.00    -0.271 OA
ATOM     45  N   THR B   5       5.346  89.730  63.156  1.00  7.70    -0.344 N 
ATOM     46  H   THR B   5       6.262  89.676  62.811  1.00  0.23     0.163 HD
BRANCH  45  47
ATOM     47  CA  THR B   5       4.261  90.072  62.241  1.00  7.88     0.205 C 
BRANCH  47  48
ATOM     48  CB  THR B   5       4.699  91.190  61.294  1.00  4.05     0.146 C 
ATOM     49  CG2 THR B   5       6.004  90.897  60.586  1.00  3.72     0.042 C 
BRANCH  48  50
ATOM     50  OG1 THR B   5       3.715  91.419  60.301  1.00  7.31    -0.393 OA
ATOM     51  HG1 THR B   5       3.874  90.840  59.553  1.00  0.23     0.210 HD
ENDBRANCH  48  50
ENDBRANCH  47  48
BRANCH  47  52
ATOM     52  C   THR B   5       3.830  88.849  61.439  1.00  7.05     0.243 C 
ATOM     53  O   THR B   5       3.358  88.972  60.308  1.00  6.06    -0.271 OA
ATOM     54  N   TRP B   6       3.997  87.670  62.028  1.00  0.00    -0.346 N 
ATOM     55  H   TRP B   6       4.379  87.635  62.929  1.00  0.23     0.163 HD
BRANCH  54  56
ATOM     56  CA  TRP B   6       3.628  86.426  61.364  1.00  0.00     0.181 C 
BRANCH  56  57
ATOM     57  CB  TRP B   6       2.111  86.357  61.177  1.00  0.00     0.075 C 
BRANCH  57  58
ATOM     58  CG  TRP B   6       1.533  85.034  61.575  1.00  0.00    -0.028 A 
ATOM     59  CD2 TRP B   6       2.231  83.946  62.193  1.00  0.00    -0.002 A 
ATOM     60  CE2 TRP B   6       1.296  82.912  62.393  1.00  0.00     0.042 A 
ATOM     61  CE3 TRP B   6       3.554  83.745  62.595  1.00  0.00     0.014 A 
ATOM     62  CZ2 TRP B   6       1.644  81.698  62.979  1.00  0.00     0.030 A 
ATOM     63  NE1 TRP B   6       0.087  83.352  61.919  1.00  0.00    -0.365 N 
ATOM     64  CH2 TRP B   6       2.946  81.527  63.362  1.00  0.00     0.002 A 
ATOM     65  CZ3 TRP B   6       3.897  82.538  63.176  1.00  0.00     0.001 A 
ATOM     66  CD1 TRP B   6       0.239  84.627  61.430  1.00  0.00     0.096 A 
ATOM     67  HE1 TRP B   6      -0.749  82.840  61.928  1.00  0.23     0.165 HD
ENDBRANCH  57  58
ENDBRANCH  56  57
BRANCH  56  68
ATOM     68  C   TRP B   6       4.330  86.298  60.017  1.00  0.00     0.241 C 
ATOM     69  N   VAL B   7       5.647  86.481  60.024  1.00  6.11    -0.344 N 
ATOM     70  H   VAL B   7       6.096  86.683  60.871  1.00  0.23     0.163 HD
ATOM     71  O   TRP B   6       3.693  86.043  58.994  1.00  0.00    -0.271 OA
BRANCH  69  72
ATOM     72  CA  VAL B   7       6.440  86.390  58.805  1.00  5.65     0.189 C 
BRANCH  72  73
ATOM     73  CB  VAL B   7       7.498  87.509  58.743  1.00  1.15     0.010 C 
ATOM     74  CG1 VAL B   7       6.989  88.679  57.912  1.00  4.96     0.012 C 
ATOM     75  CG2 VAL B   7       7.879  87.967  60.143  1.00  9.83     0.012 C 
ENDBRANCH  72  73
BRANCH  72  76
ATOM     76  C   VAL B   7       7.139  85.037  58.702  1.00  4.44     0.197 C 
ATOM     77  O   VAL B   7       7.174  84.314  59.719  1.00  0.00    -0.646 OA
ATOM     78  OXT VAL B   7       7.646  84.714  57.609  1.00  0.00    -0.646 OA
ENDBRANCH  72  76
ENDBRANCH  69  72
ENDBRANCH  56  68
ENDBRANCH  54  56
ENDBRANCH  47  52
ENDBRANCH  45  47
ENDBRANCH   1  43
TORSDOF 34
ENDMDL
MODEL 6
REMARK VINA RESULT:      -4.4      3.276      6.053
REMARK WARNING: 32 MAX_TORS EXCEEDED!!!
REMARK  34 active torsions:
REMARK  status: ('A' for Active; 'I' for Inactive)
REMARK    1  A    between atoms: N_1  and  CA_2 
REMARK    2  A    between atoms: CA_2  and  CB_5 
REMARK    3  A    between atoms: CA_2  and  C_3 
REMARK       I    between atoms: C_3  and  N_14 
REMARK    4  A    between atoms: CB_5  and  CG_6 
REMARK    5  A    between atoms: CG_6  and  CD_7 
REMARK    6  A    between atoms: CD_7  and  CE_8 
REMARK    7  A    between atoms: CE_8  and  NZ_9 
REMARK    8  A    between atoms: N_14  and  CA_15 
REMARK    9  A    between atoms: CA_15  and  C_16 
REMARK   10  A    between atoms: CA_15  and  CB_18 
REMARK       I    between atoms: C_16  and  N_22 
REMARK   11  A    between atoms: CB_18  and  SG_19 
REMARK   12  A    between atoms: N_22  and  CA_23 
REMARK   13  A    between atoms: CA_23  and  CB_26 
REMARK   14  A    between atoms: CA_23  and  C_24 
REMARK       I    between atoms: C_24  and  N_41 
REMARK   15  A    between atoms: CB_26  and  CG_27 
REMARK   16  A    between atoms: CG_27  and  CD_28 
REMARK   17  A    between atoms: CD_28  and  CE_29 
REMARK   18  A    between atoms: CE_29  and  NZ_30 
REMARK   19  A    between atoms: CA_35  and  N_41 
REMARK   20  A    between atoms: CA_35  and  CB_37 
REMARK   21  A    between atoms: CA_35  and  C_36 
REMARK       I    between atoms: C_36  and  N_51 
REMARK   22  A    between atoms: CB_37  and  CG_38 
REMARK   23  A    between atoms: CG_38  and  CD_39 
REMARK   24  A    between atoms: CA_45  and  N_51 
REMARK   25  A    between atoms: CA_45  and  CB_47 
REMARK   26  A    between atoms: CA_45  and  C_46 
REMARK       I    between atoms: C_46  and  N_67 
REMARK   27  A    between atoms: CB_47  and  OG1_53 
REMARK   28  A    between atoms: CA_54  and  CB_56 
REMARK   29  A    between atoms: CA_54  and  N_67 
REMARK   30  A    between atoms: CA_54  and  C_55 
REMARK       I    between atoms: C_55  and  N_76 
REMARK   31  A    between atoms: CB_56  and  CG_57 
REMARK   32  A    between atoms: CA_70  and  N_76 
REMARK   33  A    between atoms: CA_70  and  CB_72 
REMARK   34  A    between atoms: CA_70  and  C_71 
ROOT
ATOM      1  CA  GLU B   4       6.215  90.490  63.697  1.00  0.00     0.177 C 
ENDROOT
BRANCH   1   2
ATOM      2  N   GLU B   4       6.505  91.844  63.230  1.00  0.00    -0.346 N 
ATOM      3  C   LYS B   3       7.082  92.064  62.053  1.00  0.00     0.241 C 
ATOM      4  O   LYS B   3       7.424  91.148  61.301  1.00  0.00    -0.271 OA
ATOM      5  H   GLU B   4       6.259  92.608  63.793  1.00  0.23     0.163 HD
BRANCH   3   6
ATOM      6  CA  LYS B   3       7.338  93.503  61.671  1.00  0.00     0.176 C 
BRANCH   6   7
ATOM      7  CB  LYS B   3       6.788  93.808  60.251  1.00  0.00     0.035 C 
BRANCH   7   8
ATOM      8  CG  LYS B   3       5.262  94.071  60.224  1.00  0.00     0.004 C 
BRANCH   8   9
ATOM      9  CD  LYS B   3       4.644  94.419  61.582  1.00  0.00     0.027 C 
BRANCH   9  10
ATOM     10  CE  LYS B   3       3.366  95.238  61.360  1.00  0.00     0.229 C 
BRANCH  10  11
ATOM     11  NZ  LYS B   3       3.607  96.637  61.753  1.00  0.00    -0.079 N 
ATOM     12  HZ3 LYS B   3       4.591  96.706  61.972  1.00  0.00     0.274 HD
ATOM     13  HZ2 LYS B   3       3.035  96.902  62.562  1.00  0.00     0.274 HD
ATOM     14  HZ1 LYS B   3       3.342  97.277  60.995  1.00  0.00     0.274 HD
ENDBRANCH  10  11
ENDBRANCH   9  10
ENDBRANCH   8   9
ENDBRANCH   7   8
ENDBRANCH   6   7
BRANCH   6  15
ATOM     15  N   LYS B   3       8.765  93.810  61.716  1.00  0.00    -0.346 N 
ATOM     16  C   CYS B   2       9.431  93.966  62.876  1.00  0.00     0.241 C 
ATOM     17  O   CYS B   2       8.875  93.866  63.966  1.00  0.00    -0.271 OA
ATOM     18  H   LYS B   3       9.256  93.906  60.870  1.00  0.00     0.163 HD
BRANCH  16  19
ATOM     19  CA  CYS B   2      10.913  94.242  62.762  1.00  0.00     0.185 C 
BRANCH  19  20
ATOM     20  CB  CYS B   2      11.564  94.533  64.128  1.00  0.00     0.105 C 
BRANCH  20  21
ATOM     21  SG  CYS B   2      12.340  93.044  64.798  1.00  0.00    -0.180 SA
ATOM     22  HG  CYS B   2      13.586  93.338  64.436  1.00  0.00     0.101 HD
ENDBRANCH  20  21
ENDBRANCH  19  20
BRANCH  19  23
ATOM     23  N   CYS B   2      11.167  95.374  61.876  1.00  0.00    -0.345 N 
ATOM     24  C   LYS B   1      12.408  95.712  61.512  1.00  0.00     0.254 C 
ATOM     25  O   LYS B   1      13.403  95.122  61.946  1.00  0.00    -0.271 OA
ATOM     26  H   CYS B   2      10.408  95.900  61.538  1.00  0.00     0.163 HD
BRANCH  24  27
ATOM     27  CA  LYS B   1      12.531  96.892  60.577  1.00  0.00     0.350 C 
BRANCH  27  28
ATOM     28  N   LYS B   1      13.098  96.485  59.294  1.00  0.00     0.312 N 
ATOM     29  H   LYS B   1      13.864  95.759  59.456  1.00  0.00     0.359 HD
ENDBRANCH  27  28
BRANCH  27  30
ATOM     30  CB  LYS B   1      11.149  97.562  60.343  1.00  0.00     0.048 C 
BRANCH  30  31
ATOM     31  CG  LYS B   1      11.246  99.072  60.011  1.00  0.00     0.004 C 
BRANCH  31  32
ATOM     32  CD  LYS B   1      12.167  99.416  58.837  1.00  0.00     0.027 C 
BRANCH  32  33
ATOM     33  CE  LYS B   1      11.392 100.258  57.814  1.00  0.00     0.229 C 
BRANCH  33  34
ATOM     34  NZ  LYS B   1      11.495  99.631  56.485  1.00  0.00    -0.079 N 
ATOM     35  HZ1 LYS B   1      12.395  99.148  56.381  1.00  0.00     0.274 HD
ATOM     36  HZ3 LYS B   1      11.394 100.377  55.811  1.00  0.00     0.274 HD
ATOM     37  HZ2 LYS B   1      10.771  98.917  56.351  1.00  0.00     0.274 HD
ENDBRANCH  33  34
ENDBRANCH  32  33
ENDBRANCH  31  32
ENDBRANCH  30  31
ENDBRANCH  27  30
ENDBRANCH  24  27
ENDBRANCH  19  23
ENDBRANCH  16  19
ENDBRANCH   6  15
ENDBRANCH   3   6
ENDBRANCH   1   2
BRANCH   1  38
ATOM     38  CB  GLU B   4       6.402  90.394  65.212  1.00  0.00     0.045 C 
BRANCH  38  39
ATOM     39  CG  GLU B   4       7.676  89.673  65.619  1.00  0.00     0.116 C 
BRANCH  39  40
ATOM     40  CD  GLU B   4       8.441  90.404  66.706  1.00  0.00     0.172 C 
ATOM     41  OE1 GLU B   4       9.686  90.307  66.723  1.00  0.00    -0.648 OA
ATOM     42  OE2 GLU B   4       7.795  91.073  67.540  1.00  0.00    -0.648 OA
ENDBRANCH  39  40
ENDBRANCH  38  39
ENDBRANCH   1  38
BRANCH   1  43
ATOM     43  C   GLU B   4       4.793  90.080  63.326  1.00  0.00     0.241 C 
ATOM     44  O   GLU B   4       3.950  89.870  64.199  1.00  0.00    -0.271 OA
ATOM     45  N   THR B   5       4.537  89.963  62.027  1.00  7.70    -0.344 N 
ATOM     46  H   THR B   5       5.255  90.143  61.383  1.00  0.23     0.163 HD
BRANCH  45  47
ATOM     47  CA  THR B   5       3.220  89.574  61.531  1.00  7.88     0.205 C 
BRANCH  47  48
ATOM     48  CB  THR B   5       2.741  90.562  60.466  1.00  4.05     0.146 C 
ATOM     49  CG2 THR B   5       3.757  90.799  59.370  1.00  3.72     0.042 C 
BRANCH  48  50
ATOM     50  OG1 THR B   5       1.550  90.099  59.854  1.00  7.31    -0.393 OA
ATOM     51  HG1 THR B   5       0.848  90.061  60.508  1.00  0.23     0.210 HD
ENDBRANCH  48  50
ENDBRANCH  47  48
BRANCH  47  52
ATOM     52  C   THR B   5       3.260  88.163  60.952  1.00  7.05     0.243 C 
ATOM     53  O   THR B   5       2.735  87.913  59.867  1.00  6.06    -0.271 OA
ATOM     54  N   TRP B   6       3.886  87.246  61.680  1.00  0.00    -0.346 N 
ATOM     55  H   TRP B   6       4.286  87.505  62.536  1.00  0.23     0.163 HD
BRANCH  54  56
ATOM     56  CA  TRP B   6       3.997  85.862  61.235  1.00  0.00     0.181 C 
BRANCH  56  57
ATOM     57  CB  TRP B   6       2.625  85.186  61.270  1.00  0.00     0.075 C 
BRANCH  57  58
ATOM     58  CG  TRP B   6       2.274  84.648  62.623  1.00  0.00    -0.028 A 
ATOM     59  CD2 TRP B   6       1.760  83.343  62.919  1.00  0.00    -0.002 A 
ATOM     60  CE2 TRP B   6       1.583  83.272  64.314  1.00  0.00     0.042 A 
ATOM     61  CE3 TRP B   6       1.432  82.231  62.140  1.00  0.00     0.014 A 
ATOM     62  CZ2 TRP B   6       1.094  82.131  64.944  1.00  0.00     0.030 A 
ATOM     63  NE1 TRP B   6       1.972  84.477  64.840  1.00  0.00    -0.365 N 
ATOM     64  CH2 TRP B   6       0.780  81.056  64.158  1.00  0.00     0.002 A 
ATOM     65  CZ3 TRP B   6       0.946  81.098  62.768  1.00  0.00     0.001 A 
ATOM     66  CD1 TRP B   6       2.384  85.297  63.818  1.00  0.00     0.096 A 
ATOM     67  HE1 TRP B   6       1.957  84.715  65.791  1.00  0.23     0.165 HD
ENDBRANCH  57  58
ENDBRANCH  56  57
BRANCH  56  68
ATOM     68  C   TRP B   6       4.585  85.787  59.829  1.00  0.00     0.241 C 
ATOM     69  N   VAL B   7       5.759  86.385  59.655  1.00  6.11    -0.344 N 
ATOM     70  H   VAL B   7       6.184  86.833  60.415  1.00  0.23     0.163 HD
ATOM     71  O   TRP B   6       3.985  85.204  58.925  1.00  0.00    -0.271 OA
BRANCH  69  72
ATOM     72  CA  VAL B   7       6.431  86.390  58.361  1.00  5.65     0.189 C 
BRANCH  72  73
ATOM     73  CB  VAL B   7       7.419  87.568  58.251  1.00  1.15     0.010 C 
ATOM     74  CG1 VAL B   7       6.831  88.680  57.393  1.00  4.96     0.012 C 
ATOM     75  CG2 VAL B   7       7.788  88.091  59.632  1.00  9.83     0.012 C 
ENDBRANCH  72  73
BRANCH  72  76
ATOM     76  C   VAL B   7       7.183  85.084  58.125  1.00  4.44     0.197 C 
ATOM     77  O   VAL B   7       7.628  84.473  59.119  1.00  0.00    -0.646 OA
ATOM     78  OXT VAL B   7       7.322  84.685  56.951  1.00  0.00    -0.646 OA
ENDBRANCH  72  76
ENDBRANCH  69  72
ENDBRANCH  56  68
ENDBRANCH  54  56
ENDBRANCH  47  52
ENDBRANCH  45  47
ENDBRANCH   1  43
TORSDOF 34
ENDMDL
