REMARK  29 active torsions:
REMARK  status: ('A' for Active; 'I' for Inactive)
REMARK    1  A    between atoms: N_1  and  CA_2 
REMARK    2  A    between atoms: CA_2  and  CB_5 
REMARK    3  A    between atoms: CA_2  and  C_3 
REMARK       I    between atoms: C_3  and  N_14 
REMARK    4  A    between atoms: CB_5  and  CG_6 
REMARK    5  A    between atoms: CG_6  and  CD_7 
REMARK    6  A    between atoms: CD_7  and  CE_8 
REMARK    7  A    between atoms: CE_8  and  NZ_9 
REMARK    8  A    between atoms: N_14  and  CA_15 
REMARK    9  A    between atoms: CA_15  and  C_16 
REMARK   10  A    between atoms: CA_15  and  CB_18 
REMARK       I    between atoms: C_16  and  N_22 
REMARK   11  A    between atoms: CB_18  and  SG_19 
REMARK   12  A    between atoms: N_22  and  CA_23 
REMARK   13  A    between atoms: CA_23  and  C_24 
REMARK       I    between atoms: C_24  and  N_34 
REMARK   14  A    between atoms: CA_28  and  N_34 
REMARK   15  A    between atoms: CA_28  and  CB_30 
REMARK   16  A    between atoms: CA_28  and  C_29 
REMARK       I    between atoms: C_29  and  N_44 
REMARK   17  A    between atoms: CB_30  and  CG_31 
REMARK   18  A    between atoms: CG_31  and  CD_32 
REMARK   19  A    between atoms: CA_38  and  N_44 
REMARK   20  A    between atoms: CA_38  and  CB_40 
REMARK   21  A    between atoms: CA_38  and  C_39 
REMARK       I    between atoms: C_39  and  N_60 
REMARK   22  A    between atoms: CB_40  and  OG1_46 
REMARK   23  A    between atoms: CA_47  and  CB_49 
REMARK   24  A    between atoms: CA_47  and  N_60 
REMARK   25  A    between atoms: CA_47  and  C_48 
REMARK       I    between atoms: C_48  and  N_69 
REMARK   26  A    between atoms: CB_49  and  CG_50 
REMARK   27  A    between atoms: CA_63  and  N_69 
REMARK   28  A    between atoms: CA_63  and  CB_65 
REMARK   29  A    between atoms: CA_63  and  C_64 
ROOT
ATOM      1  C   GLU B   4       3.543  -0.948  -0.607  1.00  0.00     0.241 C 
ATOM      2  O   GLU B   4       3.056  -0.622   0.476  1.00  0.00    -0.271 OA
ATOM      3  H   THR B   5       4.944  -0.656  -2.002  1.00  0.23     0.163 HD
ATOM      4  N   THR B   5       4.607  -0.349  -1.134  1.00  7.70    -0.344 N 
ENDROOT
BRANCH   1   5
ATOM      5  CA  GLU B   4       2.935  -2.082  -1.427  1.00  0.00     0.177 C 
BRANCH   5   6
ATOM      6  N   GLU B   4       2.719  -3.266  -0.598  1.00  0.00    -0.346 N 
ATOM      7  H   GLU B   4       1.805  -3.516  -0.349  1.00  0.23     0.163 HD
ATOM      8  C   ALA B   3       3.740  -3.992  -0.159  1.00  0.00     0.240 C 
ATOM      9  O   ALA B   3       4.909  -3.750  -0.448  1.00  0.00    -0.271 OA
BRANCH   8  10
ATOM     10  CA  ALA B   3       3.405  -5.207   0.672  1.00  0.00     0.172 C 
ATOM     11  CB  ALA B   3       2.932  -6.398  -0.178  1.00  0.00     0.042 C 
BRANCH  10  12
ATOM     12  N   ALA B   3       2.353  -4.906   1.638  1.00  0.00    -0.346 N 
ATOM     13  H   ALA B   3       1.857  -4.047   1.543  1.00  0.00     0.163 HD
ATOM     14  C   CYS B   2       2.016  -5.730   2.650  1.00  0.00     0.241 C 
ATOM     15  O   CYS B   2       2.568  -6.816   2.803  1.00  0.00    -0.271 OA
BRANCH  14  16
ATOM     16  CA  CYS B   2       0.941  -5.245   3.595  1.00  0.00     0.185 C 
BRANCH  16  17
ATOM     17  N   CYS B   2      -0.088  -6.264   3.783  1.00  0.00    -0.345 N 
ATOM     18  C   LYS B   1       0.092  -7.294   4.615  1.00  0.00     0.254 C 
ATOM     19  O   LYS B   1       1.152  -7.467   5.226  1.00  0.00    -0.271 OA
ATOM     20  H   CYS B   2      -0.933  -6.191   3.286  1.00  0.00     0.163 HD
BRANCH  18  21
ATOM     21  CA  LYS B   1      -1.058  -8.267   4.732  1.00  0.00     0.350 C 
BRANCH  21  22
ATOM     22  CB  LYS B   1      -1.448  -8.835   3.340  1.00  0.00     0.048 C 
BRANCH  22  23
ATOM     23  CG  LYS B   1      -2.450 -10.014   3.415  1.00  0.00     0.004 C 
BRANCH  23  24
ATOM     24  CD  LYS B   1      -2.847 -10.609   2.061  1.00  0.00     0.027 C 
BRANCH  24  25
ATOM     25  CE  LYS B   1      -3.849 -11.750   2.284  1.00  0.00     0.229 C 
BRANCH  25  26
ATOM     26  NZ  LYS B   1      -4.242 -12.318   0.983  1.00  0.00    -0.079 N 
ATOM     27  HZ3 LYS B   1      -4.990 -11.736   0.633  1.00  0.00     0.274 HD
ATOM     28  HZ2 LYS B   1      -4.551 -13.291   1.078  1.00  0.00     0.274 HD
ATOM     29  HZ1 LYS B   1      -3.443 -12.334   0.338  1.00  0.00     0.274 HD
ENDBRANCH  25  26
ENDBRANCH  24  25
ENDBRANCH  23  24
ENDBRANCH  22  23
ENDBRANCH  21  22
BRANCH  21  30
ATOM     30  N   LYS B   1      -2.222  -7.630   5.341  1.00  0.00     0.312 N 
ATOM     31  H   LYS B   1      -1.997  -6.610   5.561  1.00  0.00     0.359 HD
ENDBRANCH  21  30
ENDBRANCH  18  21
ENDBRANCH  16  17
BRANCH  16  32
ATOM     32  CB  CYS B   2       1.503  -4.856   4.976  1.00  0.00     0.105 C 
BRANCH  32  33
ATOM     33  SG  CYS B   2       2.757  -3.564   4.816  1.00  0.00    -0.180 SA
ATOM     34  HG  CYS B   2       3.815  -4.342   5.031  1.00  0.00     0.101 HD
ENDBRANCH  32  33
ENDBRANCH  16  32
ENDBRANCH  14  16
ENDBRANCH  10  12
ENDBRANCH   8  10
ENDBRANCH   5   6
BRANCH   5  35
ATOM     35  CB  GLU B   4       1.619  -1.618  -2.053  1.00  0.00     0.045 C 
BRANCH  35  36
ATOM     36  CG  GLU B   4       0.498  -1.442  -1.042  1.00  0.00     0.116 C 
BRANCH  36  37
ATOM     37  CD  GLU B   4      -0.456  -2.621  -1.013  1.00  0.00     0.172 C 
ATOM     38  OE2 GLU B   4      -0.521  -3.306   0.029  1.00  0.00    -0.648 OA
ATOM     39  OE1 GLU B   4      -1.137  -2.858  -2.032  1.00  0.00    -0.648 OA
ENDBRANCH  36  37
ENDBRANCH  35  36
ENDBRANCH   5  35
ENDBRANCH   1   5
BRANCH   4  40
ATOM     40  CA  THR B   5       5.286   0.753  -0.459  1.00  7.88     0.205 C 
BRANCH  40  41
ATOM     41  CB  THR B   5       6.709   0.344  -0.075  1.00  4.05     0.146 C 
ATOM     42  CG2 THR B   5       7.356   1.289   0.914  1.00  3.72     0.042 C 
BRANCH  41  43
ATOM     43  OG1 THR B   5       6.720  -0.951   0.499  1.00  7.31    -0.393 OA
ATOM     44  HG1 THR B   5       6.777  -1.609  -0.197  1.00  0.23     0.210 HD
ENDBRANCH  41  43
ENDBRANCH  40  41
BRANCH  40  45
ATOM     45  C   THR B   5       5.323   1.989  -1.352  1.00  7.05     0.243 C 
ATOM     46  N   TRP B   6       4.731   3.078  -0.874  1.00  0.00    -0.346 N 
ATOM     47  H   TRP B   6       4.307   3.044   0.009  1.00  0.23     0.163 HD
ATOM     48  O   THR B   5       5.874   1.955  -2.452  1.00  6.06    -0.271 OA
BRANCH  46  49
ATOM     49  CA  TRP B   6       4.694   4.322  -1.632  1.00  0.00     0.181 C 
BRANCH  49  50
ATOM     50  CB  TRP B   6       3.466   5.144  -1.238  1.00  0.00     0.075 C 
BRANCH  50  51
ATOM     51  CG  TRP B   6       2.176   4.494  -1.635  1.00  0.00    -0.028 A 
ATOM     52  CD2 TRP B   6       1.490   4.644  -2.884  1.00  0.00    -0.002 A 
ATOM     53  CE2 TRP B   6       0.330   3.849  -2.820  1.00  0.00     0.042 A 
ATOM     54  CE3 TRP B   6       1.744   5.374  -4.048  1.00  0.00     0.014 A 
ATOM     55  CZ2 TRP B   6      -0.572   3.764  -3.877  1.00  0.00     0.030 A 
ATOM     56  NE1 TRP B   6       0.312   3.244  -1.590  1.00  0.00    -0.365 N 
ATOM     57  CH2 TRP B   6      -0.300   4.489  -5.005  1.00  0.00     0.002 A 
ATOM     58  CZ3 TRP B   6       0.846   5.288  -5.097  1.00  0.00     0.001 A 
ATOM     59  HE1 TRP B   6      -0.381   2.631  -1.266  1.00  0.23     0.165 HD
ATOM     60  CD1 TRP B   6       1.424   3.637  -0.885  1.00  0.00     0.096 A 
ENDBRANCH  50  51
ENDBRANCH  49  50
BRANCH  49  61
ATOM     61  C   TRP B   6       5.965   5.135  -1.408  1.00  0.00     0.241 C 
ATOM     62  N   VAL B   7       6.752   5.293  -2.468  1.00  6.11    -0.344 N 
ATOM     63  H   VAL B   7       6.488   4.893  -3.322  1.00  0.23     0.163 HD
ATOM     64  O   TRP B   6       6.227   5.604  -0.300  1.00  0.00    -0.271 OA
BRANCH  62  65
ATOM     65  CA  VAL B   7       7.998   6.045  -2.391  1.00  5.65     0.189 C 
BRANCH  65  66
ATOM     66  CB  VAL B   7       9.053   5.476  -3.360  1.00  1.15     0.010 C 
ATOM     67  CG1 VAL B   7       9.474   4.078  -2.930  1.00  4.96     0.012 C 
ATOM     68  CG2 VAL B   7       8.523   5.465  -4.786  1.00  9.83     0.012 C 
ENDBRANCH  65  66
BRANCH  65  69
ATOM     69  C   VAL B   7       7.772   7.520  -2.710  1.00  4.44     0.197 C 
ATOM     70  OXT VAL B   7       6.958   7.813  -3.609  1.00  0.00    -0.646 OA
ATOM     71  O   VAL B   7       8.412   8.369  -2.055  1.00  0.00    -0.646 OA
ENDBRANCH  65  69
ENDBRANCH  62  65
ENDBRANCH  49  61
ENDBRANCH  46  49
ENDBRANCH  40  45
ENDBRANCH   4  40
TORSDOF 29
