REMARK WARNING: 32 MAX_TORS EXCEEDED!!!
REMARK  34 active torsions:
REMARK  status: ('A' for Active; 'I' for Inactive)
REMARK    1  A    between atoms: N_1  and  CA_2 
REMARK    2  A    between atoms: CA_2  and  CB_5 
REMARK    3  A    between atoms: CA_2  and  C_3 
REMARK       I    between atoms: C_3  and  N_14 
REMARK    4  A    between atoms: CB_5  and  CG_6 
REMARK    5  A    between atoms: CG_6  and  CD_7 
REMARK    6  A    between atoms: CD_7  and  CE_8 
REMARK    7  A    between atoms: CE_8  and  NZ_9 
REMARK    8  A    between atoms: N_14  and  CA_15 
REMARK    9  A    between atoms: CA_15  and  C_16 
REMARK   10  A    between atoms: CA_15  and  CB_18 
REMARK       I    between atoms: C_16  and  N_22 
REMARK   11  A    between atoms: CB_18  and  SG_19 
REMARK   12  A    between atoms: N_22  and  CA_23 
REMARK   13  A    between atoms: CA_23  and  CB_26 
REMARK   14  A    between atoms: CA_23  and  C_24 
REMARK       I    between atoms: C_24  and  N_41 
REMARK   15  A    between atoms: CB_26  and  CG_27 
REMARK   16  A    between atoms: CG_27  and  CD_28 
REMARK   17  A    between atoms: CD_28  and  CE_29 
REMARK   18  A    between atoms: CE_29  and  NZ_30 
REMARK   19  A    between atoms: CA_35  and  N_41 
REMARK   20  A    between atoms: CA_35  and  CB_37 
REMARK   21  A    between atoms: CA_35  and  C_36 
REMARK       I    between atoms: C_36  and  N_51 
REMARK   22  A    between atoms: CB_37  and  CG_38 
REMARK   23  A    between atoms: CG_38  and  CD_39 
REMARK   24  A    between atoms: CA_45  and  N_51 
REMARK   25  A    between atoms: CA_45  and  CB_47 
REMARK   26  A    between atoms: CA_45  and  C_46 
REMARK       I    between atoms: C_46  and  N_67 
REMARK   27  A    between atoms: CB_47  and  OG1_53 
REMARK   28  A    between atoms: CA_54  and  CB_56 
REMARK   29  A    between atoms: CA_54  and  N_67 
REMARK   30  A    between atoms: CA_54  and  C_55 
REMARK       I    between atoms: C_55  and  N_76 
REMARK   31  A    between atoms: CB_56  and  CG_57 
REMARK   32  A    between atoms: CA_70  and  N_76 
REMARK   33  A    between atoms: CA_70  and  CB_72 
REMARK   34  A    between atoms: CA_70  and  C_71 
ROOT
ATOM      1  CA  GLU B   4       2.935  -2.082  -1.427  1.00  0.00     0.177 C 
ENDROOT
BRANCH   1   2
ATOM      2  N   GLU B   4       2.719  -3.266  -0.598  1.00  0.00    -0.346 N 
ATOM      3  C   LYS B   3       3.736  -4.004  -0.163  1.00  0.00     0.241 C 
ATOM      4  O   LYS B   3       4.909  -3.750  -0.448  1.00  0.00    -0.271 OA
ATOM      5  H   GLU B   4       1.805  -3.516  -0.349  1.00  0.23     0.163 HD
BRANCH   3   6
ATOM      6  CA  LYS B   3       3.399  -5.208   0.684  1.00  0.00     0.176 C 
BRANCH   6   7
ATOM      7  CB  LYS B   3       2.943  -6.400  -0.200  1.00  0.00     0.035 C 
BRANCH   7   8
ATOM      8  CG  LYS B   3       4.016  -6.858  -1.219  1.00  0.00     0.004 C 
BRANCH   8   9
ATOM      9  CD  LYS B   3       3.629  -8.080  -2.057  1.00  0.00     0.027 C 
BRANCH   9  10
ATOM     10  CE  LYS B   3       4.774  -8.415  -3.021  1.00  0.00     0.229 C 
BRANCH  10  11
ATOM     11  NZ  LYS B   3       4.402  -9.585  -3.836  1.00  0.00    -0.079 N 
ATOM     12  HZ3 LYS B   3       4.634 -10.400  -3.286  1.00  0.00     0.274 HD
ATOM     13  HZ2 LYS B   3       4.905  -9.593  -4.729  1.00  0.00     0.274 HD
ATOM     14  HZ1 LYS B   3       3.403  -9.560  -4.071  1.00  0.00     0.274 HD
ENDBRANCH  10  11
ENDBRANCH   9  10
ENDBRANCH   8   9
ENDBRANCH   7   8
ENDBRANCH   6   7
BRANCH   6  15
ATOM     15  N   LYS B   3       2.352  -4.891   1.651  1.00  0.00    -0.346 N 
ATOM     16  C   CYS B   2       2.016  -5.730   2.650  1.00  0.00     0.241 C 
ATOM     17  O   CYS B   2       2.568  -6.816   2.803  1.00  0.00    -0.271 OA
ATOM     18  H   LYS B   3       1.875  -4.035   1.570  1.00  0.00     0.163 HD
BRANCH  16  19
ATOM     19  CA  CYS B   2       0.941  -5.245   3.595  1.00  0.00     0.185 C 
BRANCH  19  20
ATOM     20  CB  CYS B   2       1.503  -4.856   4.976  1.00  0.00     0.105 C 
BRANCH  20  21
ATOM     21  SG  CYS B   2       2.757  -3.564   4.816  1.00  0.00    -0.180 SA
ATOM     22  HG  CYS B   2       3.815  -4.342   5.031  1.00  0.00     0.101 HD
ENDBRANCH  20  21
ENDBRANCH  19  20
BRANCH  19  23
ATOM     23  N   CYS B   2      -0.088  -6.264   3.783  1.00  0.00    -0.345 N 
ATOM     24  C   LYS B   1       0.092  -7.294   4.615  1.00  0.00     0.254 C 
ATOM     25  O   LYS B   1       1.152  -7.467   5.226  1.00  0.00    -0.271 OA
ATOM     26  H   CYS B   2      -0.933  -6.191   3.286  1.00  0.00     0.163 HD
BRANCH  24  27
ATOM     27  CA  LYS B   1      -1.058  -8.267   4.732  1.00  0.00     0.350 C 
BRANCH  27  28
ATOM     28  N   LYS B   1      -2.222  -7.630   5.341  1.00  0.00     0.312 N 
ATOM     29  H   LYS B   1      -1.997  -6.610   5.561  1.00  0.00     0.359 HD
ENDBRANCH  27  28
BRANCH  27  30
ATOM     30  CB  LYS B   1      -1.448  -8.835   3.340  1.00  0.00     0.048 C 
BRANCH  30  31
ATOM     31  CG  LYS B   1      -2.450 -10.014   3.415  1.00  0.00     0.004 C 
BRANCH  31  32
ATOM     32  CD  LYS B   1      -2.847 -10.609   2.061  1.00  0.00     0.027 C 
BRANCH  32  33
ATOM     33  CE  LYS B   1      -3.849 -11.750   2.284  1.00  0.00     0.229 C 
BRANCH  33  34
ATOM     34  NZ  LYS B   1      -4.242 -12.318   0.983  1.00  0.00    -0.079 N 
ATOM     35  HZ1 LYS B   1      -3.443 -12.334   0.338  1.00  0.00     0.274 HD
ATOM     36  HZ3 LYS B   1      -4.990 -11.736   0.633  1.00  0.00     0.274 HD
ATOM     37  HZ2 LYS B   1      -4.551 -13.291   1.078  1.00  0.00     0.274 HD
ENDBRANCH  33  34
ENDBRANCH  32  33
ENDBRANCH  31  32
ENDBRANCH  30  31
ENDBRANCH  27  30
ENDBRANCH  24  27
ENDBRANCH  19  23
ENDBRANCH  16  19
ENDBRANCH   6  15
ENDBRANCH   3   6
ENDBRANCH   1   2
BRANCH   1  38
ATOM     38  CB  GLU B   4       1.619  -1.618  -2.053  1.00  0.00     0.045 C 
BRANCH  38  39
ATOM     39  CG  GLU B   4       0.498  -1.442  -1.042  1.00  0.00     0.116 C 
BRANCH  39  40
ATOM     40  CD  GLU B   4      -0.456  -2.621  -1.013  1.00  0.00     0.172 C 
ATOM     41  OE1 GLU B   4      -1.137  -2.858  -2.032  1.00  0.00    -0.648 OA
ATOM     42  OE2 GLU B   4      -0.521  -3.306   0.029  1.00  0.00    -0.648 OA
ENDBRANCH  39  40
ENDBRANCH  38  39
ENDBRANCH   1  38
BRANCH   1  43
ATOM     43  C   GLU B   4       3.543  -0.948  -0.607  1.00  0.00     0.241 C 
ATOM     44  O   GLU B   4       3.056  -0.622   0.476  1.00  0.00    -0.271 OA
ATOM     45  N   THR B   5       4.607  -0.349  -1.134  1.00  7.70    -0.344 N 
ATOM     46  H   THR B   5       4.944  -0.656  -2.002  1.00  0.23     0.163 HD
BRANCH  45  47
ATOM     47  CA  THR B   5       5.286   0.753  -0.459  1.00  7.88     0.205 C 
BRANCH  47  48
ATOM     48  CB  THR B   5       6.709   0.344  -0.075  1.00  4.05     0.146 C 
ATOM     49  CG2 THR B   5       7.356   1.289   0.914  1.00  3.72     0.042 C 
BRANCH  48  50
ATOM     50  OG1 THR B   5       6.720  -0.951   0.499  1.00  7.31    -0.393 OA
ATOM     51  HG1 THR B   5       6.777  -1.609  -0.197  1.00  0.23     0.210 HD
ENDBRANCH  48  50
ENDBRANCH  47  48
BRANCH  47  52
ATOM     52  C   THR B   5       5.323   1.989  -1.352  1.00  7.05     0.243 C 
ATOM     53  O   THR B   5       5.874   1.955  -2.452  1.00  6.06    -0.271 OA
ATOM     54  N   TRP B   6       4.731   3.078  -0.874  1.00  0.00    -0.346 N 
ATOM     55  H   TRP B   6       4.307   3.044   0.009  1.00  0.23     0.163 HD
BRANCH  54  56
ATOM     56  CA  TRP B   6       4.694   4.322  -1.632  1.00  0.00     0.181 C 
BRANCH  56  57
ATOM     57  CB  TRP B   6       3.466   5.144  -1.238  1.00  0.00     0.075 C 
BRANCH  57  58
ATOM     58  CG  TRP B   6       2.176   4.494  -1.635  1.00  0.00    -0.028 A 
ATOM     59  CD2 TRP B   6       1.490   4.644  -2.884  1.00  0.00    -0.002 A 
ATOM     60  CE2 TRP B   6       0.330   3.849  -2.820  1.00  0.00     0.042 A 
ATOM     61  CE3 TRP B   6       1.744   5.374  -4.048  1.00  0.00     0.014 A 
ATOM     62  CZ2 TRP B   6      -0.572   3.764  -3.877  1.00  0.00     0.030 A 
ATOM     63  NE1 TRP B   6       0.312   3.244  -1.590  1.00  0.00    -0.365 N 
ATOM     64  CH2 TRP B   6      -0.300   4.489  -5.005  1.00  0.00     0.002 A 
ATOM     65  CZ3 TRP B   6       0.846   5.288  -5.097  1.00  0.00     0.001 A 
ATOM     66  CD1 TRP B   6       1.424   3.637  -0.885  1.00  0.00     0.096 A 
ATOM     67  HE1 TRP B   6      -0.381   2.631  -1.266  1.00  0.23     0.165 HD
ENDBRANCH  57  58
ENDBRANCH  56  57
BRANCH  56  68
ATOM     68  C   TRP B   6       5.965   5.135  -1.408  1.00  0.00     0.241 C 
ATOM     69  N   VAL B   7       6.752   5.293  -2.468  1.00  6.11    -0.344 N 
ATOM     70  H   VAL B   7       6.488   4.893  -3.322  1.00  0.23     0.163 HD
ATOM     71  O   TRP B   6       6.227   5.604  -0.300  1.00  0.00    -0.271 OA
BRANCH  69  72
ATOM     72  CA  VAL B   7       7.998   6.045  -2.391  1.00  5.65     0.189 C 
BRANCH  72  73
ATOM     73  CB  VAL B   7       9.053   5.476  -3.360  1.00  1.15     0.010 C 
ATOM     74  CG1 VAL B   7       9.474   4.078  -2.930  1.00  4.96     0.012 C 
ATOM     75  CG2 VAL B   7       8.523   5.465  -4.786  1.00  9.83     0.012 C 
ENDBRANCH  72  73
BRANCH  72  76
ATOM     76  C   VAL B   7       7.772   7.520  -2.710  1.00  4.44     0.197 C 
ATOM     77  O   VAL B   7       8.412   8.369  -2.055  1.00  0.00    -0.646 OA
ATOM     78  OXT VAL B   7       6.958   7.813  -3.609  1.00  0.00    -0.646 OA
ENDBRANCH  72  76
ENDBRANCH  69  72
ENDBRANCH  56  68
ENDBRANCH  54  56
ENDBRANCH  47  52
ENDBRANCH  45  47
ENDBRANCH   1  43
TORSDOF 34
