MODEL 1
REMARK VINA RESULT:      -8.9      0.000      0.000
REMARK  31 active torsions:
REMARK  status: ('A' for Active; 'I' for Inactive)
REMARK    1  A    between atoms: N_1  and  CA_2 
REMARK    2  A    between atoms: CA_2  and  CB_5 
REMARK    3  A    between atoms: CA_2  and  C_3 
REMARK       I    between atoms: C_3  and  N_14 
REMARK    4  A    between atoms: CB_5  and  CG_6 
REMARK    5  A    between atoms: CG_6  and  CD_7 
REMARK    6  A    between atoms: CD_7  and  CE_8 
REMARK    7  A    between atoms: CE_8  and  NZ_9 
REMARK    8  A    between atoms: N_14  and  CA_15 
REMARK    9  A    between atoms: CA_15  and  C_16 
REMARK   10  A    between atoms: CA_15  and  CB_18 
REMARK       I    between atoms: C_16  and  N_22 
REMARK   11  A    between atoms: CB_18  and  SG_19 
REMARK   12  A    between atoms: N_22  and  CA_23 
REMARK   13  A    between atoms: CA_23  and  CB_26 
REMARK   14  A    between atoms: CA_23  and  C_24 
REMARK       I    between atoms: C_24  and  N_40 
REMARK   15  A    between atoms: CB_26  and  CG_27 
REMARK   16  A    between atoms: CA_34  and  N_40 
REMARK   17  A    between atoms: CA_34  and  CB_36 
REMARK   18  A    between atoms: CA_34  and  C_35 
REMARK       I    between atoms: C_35  and  N_50 
REMARK   19  A    between atoms: CB_36  and  CG_37 
REMARK   20  A    between atoms: CG_37  and  CD_38 
REMARK   21  A    between atoms: CA_44  and  N_50 
REMARK   22  A    between atoms: CA_44  and  CB_46 
REMARK   23  A    between atoms: CA_44  and  C_45 
REMARK       I    between atoms: C_45  and  N_66 
REMARK   24  A    between atoms: CB_46  and  OG1_52 
REMARK   25  A    between atoms: CA_53  and  CB_55 
REMARK   26  A    between atoms: CA_53  and  N_66 
REMARK   27  A    between atoms: CA_53  and  C_54 
REMARK       I    between atoms: C_54  and  N_75 
REMARK   28  A    between atoms: CB_55  and  CG_56 
REMARK   29  A    between atoms: CA_69  and  N_75 
REMARK   30  A    between atoms: CA_69  and  CB_71 
REMARK   31  A    between atoms: CA_69  and  C_70 
ROOT
ATOM      1  CA  GLU B   4       9.243  93.240  63.157  1.00  0.00     0.177 C 
ENDROOT
BRANCH   1   2
ATOM      2  N   GLU B   4      10.273  93.837  62.309  1.00  0.00    -0.346 N 
ATOM      3  C   PHE B   3      10.922  94.943  62.662  1.00  0.00     0.241 C 
ATOM      4  O   PHE B   3      10.690  95.522  63.736  1.00  0.00    -0.271 OA
ATOM      5  H   GLU B   4      10.494  93.413  61.453  1.00  0.23     0.163 HD
BRANCH   3   6
ATOM      6  CA  PHE B   3      11.983  95.469  61.726  1.00  0.00     0.180 C 
BRANCH   6   7
ATOM      7  CB  PHE B   3      13.316  95.631  62.517  1.00  0.00     0.073 C 
BRANCH   7   8
ATOM      8  CG  PHE B   3      14.047  94.334  62.901  1.00  0.00    -0.056 A 
ATOM      9  CD1 PHE B   3      13.636  93.618  64.031  1.00  0.00     0.007 A 
ATOM     10  CE1 PHE B   3      14.336  92.488  64.438  1.00  0.00     0.001 A 
ATOM     11  CZ  PHE B   3      15.441  92.056  63.709  1.00  0.00     0.000 A 
ATOM     12  CE2 PHE B   3      15.850  92.757  62.575  1.00  0.00     0.001 A 
ATOM     13  CD2 PHE B   3      15.155  93.895  62.173  1.00  0.00     0.007 A 
ENDBRANCH   7   8
ENDBRANCH   6   7
BRANCH   6  14
ATOM     14  N   PHE B   3      11.584  96.748  61.148  1.00  0.00    -0.346 N 
ATOM     15  C   CYS B   2      12.177  97.238  60.044  1.00  0.00     0.241 C 
ATOM     16  O   CYS B   2      13.083  96.646  59.466  1.00  0.00    -0.271 OA
ATOM     17  H   PHE B   3      10.870  97.263  61.574  1.00  0.00     0.163 HD
BRANCH  15  18
ATOM     18  CA  CYS B   2      11.632  98.551  59.531  1.00  0.00     0.185 C 
BRANCH  18  19
ATOM     19  N   CYS B   2      12.312  98.955  58.302  1.00  0.00    -0.345 N 
ATOM     20  H   CYS B   2      12.819  98.285  57.792  1.00  0.00     0.163 HD
ATOM     21  C   LYS B   1      12.260 100.213  57.856  1.00  0.00     0.254 C 
ATOM     22  O   LYS B   1      11.596 101.085  58.426  1.00  0.00    -0.271 OA
BRANCH  21  23
ATOM     23  CA  LYS B   1      13.022 100.502  56.583  1.00  0.00     0.350 C 
BRANCH  23  24
ATOM     24  N   LYS B   1      14.383  99.978  56.658  1.00  0.00     0.312 N 
ATOM     25  H   LYS B   1      14.358  98.912  56.614  1.00  0.00     0.359 HD
ENDBRANCH  23  24
BRANCH  23  26
ATOM     26  CB  LYS B   1      12.299  99.890  55.353  1.00  0.00     0.048 C 
BRANCH  26  27
ATOM     27  CG  LYS B   1      12.862 100.387  53.998  1.00  0.00     0.004 C 
BRANCH  27  28
ATOM     28  CD  LYS B   1      13.350  99.280  53.058  1.00  0.00     0.027 C 
BRANCH  28  29
ATOM     29  CE  LYS B   1      14.742  99.647  52.525  1.00  0.00     0.229 C 
BRANCH  29  30
ATOM     30  NZ  LYS B   1      15.285 100.772  53.306  1.00  0.00    -0.079 N 
ATOM     31  HZ3 LYS B   1      15.627 101.445  52.634  1.00  0.00     0.274 HD
ATOM     32  HZ2 LYS B   1      16.037 100.465  53.931  1.00  0.00     0.274 HD
ATOM     33  HZ1 LYS B   1      14.560 101.178  53.910  1.00  0.00     0.274 HD
ENDBRANCH  29  30
ENDBRANCH  28  29
ENDBRANCH  27  28
ENDBRANCH  26  27
ENDBRANCH  23  26
ENDBRANCH  21  23
ENDBRANCH  18  19
BRANCH  18  34
ATOM     34  CB  CYS B   2      10.117  98.493  59.256  1.00  0.00     0.105 C 
BRANCH  34  35
ATOM     35  SG  CYS B   2       9.787  97.722  57.654  1.00  0.00    -0.180 SA
ATOM     36  HG  CYS B   2      11.041  97.370  57.386  1.00  0.00     0.101 HD
ENDBRANCH  34  35
ENDBRANCH  18  34
ENDBRANCH  15  18
ENDBRANCH   6  14
ENDBRANCH   3   6
ENDBRANCH   1   2
BRANCH   1  37
ATOM     37  CB  GLU B   4       7.988  92.930  62.339  1.00  0.00     0.045 C 
BRANCH  37  38
ATOM     38  CG  GLU B   4       7.857  93.782  61.088  1.00  0.00     0.116 C 
BRANCH  38  39
ATOM     39  CD  GLU B   4       6.603  93.469  60.294  1.00  0.00     0.172 C 
ATOM     40  OE1 GLU B   4       6.392  92.284  59.960  1.00  0.00    -0.648 OA
ATOM     41  OE2 GLU B   4       5.832  94.408  60.008  1.00  0.00    -0.648 OA
ENDBRANCH  38  39
ENDBRANCH  37  38
ENDBRANCH   1  37
BRANCH   1  42
ATOM     42  C   GLU B   4       9.756  91.964  63.817  1.00  0.00     0.241 C 
ATOM     43  N   THR B   5       8.859  91.254  64.496  1.00  7.70    -0.344 N 
ATOM     44  H   THR B   5       7.934  91.576  64.541  1.00  0.23     0.163 HD
ATOM     45  O   GLU B   4      10.936  91.629  63.711  1.00  0.00    -0.271 OA
BRANCH  43  46
ATOM     46  CA  THR B   5       9.211  90.010  65.174  1.00  7.88     0.205 C 
BRANCH  46  47
ATOM     47  CB  THR B   5       8.821  90.083  66.651  1.00  4.05     0.146 C 
ATOM     48  CG2 THR B   5       8.445  91.477  67.103  1.00  3.72     0.042 C 
BRANCH  47  49
ATOM     49  OG1 THR B   5       7.719  89.234  66.920  1.00  7.31    -0.393 OA
ATOM     50  HG1 THR B   5       8.038  88.390  67.246  1.00  0.23     0.210 HD
ENDBRANCH  47  49
ENDBRANCH  46  47
BRANCH  46  51
ATOM     51  C   THR B   5       8.520  88.823  64.511  1.00  7.05     0.243 C 
ATOM     52  N   TRP B   6       7.543  89.111  63.659  1.00  0.00    -0.346 N 
ATOM     53  H   TRP B   6       7.312  90.050  63.495  1.00  0.23     0.163 HD
ATOM     54  O   THR B   5       8.865  87.670  64.769  1.00  6.06    -0.271 OA
BRANCH  52  55
ATOM     55  CA  TRP B   6       6.803  88.066  62.964  1.00  0.00     0.181 C 
BRANCH  55  56
ATOM     56  CB  TRP B   6       5.298  88.299  63.108  1.00  0.00     0.075 C 
BRANCH  56  57
ATOM     57  CG  TRP B   6       4.887  89.695  62.752  1.00  0.00    -0.028 A 
ATOM     58  CD2 TRP B   6       4.977  90.855  63.588  1.00  0.00    -0.002 A 
ATOM     59  CE2 TRP B   6       4.485  91.944  62.843  1.00  0.00     0.042 A 
ATOM     60  CE3 TRP B   6       5.424  91.077  64.893  1.00  0.00     0.014 A 
ATOM     61  CZ2 TRP B   6       4.431  93.234  63.362  1.00  0.00     0.030 A 
ATOM     62  NE1 TRP B   6       4.114  91.468  61.613  1.00  0.00    -0.365 N 
ATOM     63  CH2 TRP B   6       4.875  93.424  64.642  1.00  0.00     0.002 A 
ATOM     64  CZ3 TRP B   6       5.369  92.360  65.406  1.00  0.00     0.001 A 
ATOM     65  HE1 TRP B   6       3.736  92.004  60.884  1.00  0.23     0.165 HD
ATOM     66  CD1 TRP B   6       4.358  90.117  61.566  1.00  0.00     0.096 A 
ENDBRANCH  56  57
ENDBRANCH  55  56
BRANCH  55  67
ATOM     67  C   TRP B   6       7.188  88.015  61.489  1.00  0.00     0.241 C 
ATOM     68  N   VAL B   7       6.729  86.973  60.801  1.00  6.11    -0.344 N 
ATOM     69  H   VAL B   7       6.179  86.305  61.258  1.00  0.23     0.163 HD
ATOM     70  O   TRP B   6       7.887  88.896  60.988  1.00  0.00    -0.271 OA
BRANCH  68  71
ATOM     71  CA  VAL B   7       7.025  86.800  59.385  1.00  5.65     0.189 C 
BRANCH  71  72
ATOM     72  CB  VAL B   7       6.589  85.408  58.890  1.00  1.15     0.010 C 
ATOM     73  CG1 VAL B   7       7.277  85.068  57.575  1.00  4.96     0.012 C 
ATOM     74  CG2 VAL B   7       6.881  84.347  59.941  1.00  9.83     0.012 C 
ENDBRANCH  71  72
BRANCH  71  75
ATOM     75  C   VAL B   7       6.333  87.868  58.543  1.00  4.44     0.197 C 
ATOM     76  OXT VAL B   7       7.004  88.467  57.678  1.00  0.00    -0.646 OA
ATOM     77  O   VAL B   7       5.124  88.094  58.756  1.00  0.00    -0.646 OA
ENDBRANCH  71  75
ENDBRANCH  68  71
ENDBRANCH  55  67
ENDBRANCH  52  55
ENDBRANCH  46  51
ENDBRANCH  43  46
ENDBRANCH   1  42
TORSDOF 31
ENDMDL
MODEL 2
REMARK VINA RESULT:      -8.4      2.821      4.464
REMARK  31 active torsions:
REMARK  status: ('A' for Active; 'I' for Inactive)
REMARK    1  A    between atoms: N_1  and  CA_2 
REMARK    2  A    between atoms: CA_2  and  CB_5 
REMARK    3  A    between atoms: CA_2  and  C_3 
REMARK       I    between atoms: C_3  and  N_14 
REMARK    4  A    between atoms: CB_5  and  CG_6 
REMARK    5  A    between atoms: CG_6  and  CD_7 
REMARK    6  A    between atoms: CD_7  and  CE_8 
REMARK    7  A    between atoms: CE_8  and  NZ_9 
REMARK    8  A    between atoms: N_14  and  CA_15 
REMARK    9  A    between atoms: CA_15  and  C_16 
REMARK   10  A    between atoms: CA_15  and  CB_18 
REMARK       I    between atoms: C_16  and  N_22 
REMARK   11  A    between atoms: CB_18  and  SG_19 
REMARK   12  A    between atoms: N_22  and  CA_23 
REMARK   13  A    between atoms: CA_23  and  CB_26 
REMARK   14  A    between atoms: CA_23  and  C_24 
REMARK       I    between atoms: C_24  and  N_40 
REMARK   15  A    between atoms: CB_26  and  CG_27 
REMARK   16  A    between atoms: CA_34  and  N_40 
REMARK   17  A    between atoms: CA_34  and  CB_36 
REMARK   18  A    between atoms: CA_34  and  C_35 
REMARK       I    between atoms: C_35  and  N_50 
REMARK   19  A    between atoms: CB_36  and  CG_37 
REMARK   20  A    between atoms: CG_37  and  CD_38 
REMARK   21  A    between atoms: CA_44  and  N_50 
REMARK   22  A    between atoms: CA_44  and  CB_46 
REMARK   23  A    between atoms: CA_44  and  C_45 
REMARK       I    between atoms: C_45  and  N_66 
REMARK   24  A    between atoms: CB_46  and  OG1_52 
REMARK   25  A    between atoms: CA_53  and  CB_55 
REMARK   26  A    between atoms: CA_53  and  N_66 
REMARK   27  A    between atoms: CA_53  and  C_54 
REMARK       I    between atoms: C_54  and  N_75 
REMARK   28  A    between atoms: CB_55  and  CG_56 
REMARK   29  A    between atoms: CA_69  and  N_75 
REMARK   30  A    between atoms: CA_69  and  CB_71 
REMARK   31  A    between atoms: CA_69  and  C_70 
ROOT
ATOM      1  CA  GLU B   4       8.583  93.349  62.724  1.00  0.00     0.177 C 
ENDROOT
BRANCH   1   2
ATOM      2  N   GLU B   4       9.657  94.034  62.009  1.00  0.00    -0.346 N 
ATOM      3  C   PHE B   3      10.518  94.836  62.632  1.00  0.00     0.241 C 
ATOM      4  O   PHE B   3      10.455  95.037  63.856  1.00  0.00    -0.271 OA
ATOM      5  H   GLU B   4       9.749  93.903  61.042  1.00  0.23     0.163 HD
BRANCH   3   6
ATOM      6  CA  PHE B   3      11.605  95.481  61.807  1.00  0.00     0.180 C 
BRANCH   6   7
ATOM      7  CB  PHE B   3      12.663  96.103  62.767  1.00  0.00     0.073 C 
BRANCH   7   8
ATOM      8  CG  PHE B   3      14.009  95.368  62.872  1.00  0.00    -0.056 A 
ATOM      9  CD1 PHE B   3      14.116  94.052  62.407  1.00  0.00     0.007 A 
ATOM     10  CE1 PHE B   3      15.303  93.346  62.567  1.00  0.00     0.001 A 
ATOM     11  CZ  PHE B   3      16.396  93.956  63.178  1.00  0.00     0.000 A 
ATOM     12  CE2 PHE B   3      16.302  95.270  63.632  1.00  0.00     0.001 A 
ATOM     13  CD2 PHE B   3      15.110  95.974  63.482  1.00  0.00     0.007 A 
ENDBRANCH   7   8
ENDBRANCH   6   7
BRANCH   6  14
ATOM     14  N   PHE B   3      11.055  96.512  60.932  1.00  0.00    -0.346 N 
ATOM     15  C   CYS B   2      11.776  97.038  59.924  1.00  0.00     0.241 C 
ATOM     16  O   CYS B   2      12.929  96.690  59.688  1.00  0.00    -0.271 OA
ATOM     17  H   PHE B   3      10.142  96.828  61.081  1.00  0.00     0.163 HD
BRANCH  15  18
ATOM     18  CA  CYS B   2      11.065  98.064  59.071  1.00  0.00     0.185 C 
BRANCH  18  19
ATOM     19  N   CYS B   2      11.975  98.649  58.090  1.00  0.00    -0.345 N 
ATOM     20  H   CYS B   2      12.519  98.055  57.526  1.00  0.00     0.163 HD
ATOM     21  C   LYS B   1      12.086  99.972  57.941  1.00  0.00     0.254 C 
ATOM     22  O   LYS B   1      11.391 100.765  58.584  1.00  0.00    -0.271 OA
BRANCH  21  23
ATOM     23  CA  LYS B   1      13.077 100.447  56.904  1.00  0.00     0.350 C 
BRANCH  23  24
ATOM     24  N   LYS B   1      14.399  99.873  57.143  1.00  0.00     0.312 N 
ATOM     25  H   LYS B   1      14.965  99.892  56.239  1.00  0.00     0.359 HD
ENDBRANCH  23  24
BRANCH  23  26
ATOM     26  CB  LYS B   1      12.603 100.076  55.473  1.00  0.00     0.048 C 
BRANCH  26  27
ATOM     27  CG  LYS B   1      13.738 100.114  54.419  1.00  0.00     0.004 C 
BRANCH  27  28
ATOM     28  CD  LYS B   1      13.365  99.540  53.049  1.00  0.00     0.027 C 
BRANCH  28  29
ATOM     29  CE  LYS B   1      14.559  99.690  52.096  1.00  0.00     0.229 C 
BRANCH  29  30
ATOM     30  NZ  LYS B   1      15.629 100.447  52.767  1.00  0.00    -0.079 N 
ATOM     31  HZ3 LYS B   1      15.543 101.403  52.451  1.00  0.00     0.274 HD
ATOM     32  HZ2 LYS B   1      16.555 100.069  52.537  1.00  0.00     0.274 HD
ATOM     33  HZ1 LYS B   1      15.538 100.377  53.787  1.00  0.00     0.274 HD
ENDBRANCH  29  30
ENDBRANCH  28  29
ENDBRANCH  27  28
ENDBRANCH  26  27
ENDBRANCH  23  26
ENDBRANCH  21  23
ENDBRANCH  18  19
BRANCH  18  34
ATOM     34  CB  CYS B   2       9.855  97.471  58.324  1.00  0.00     0.105 C 
BRANCH  34  35
ATOM     35  SG  CYS B   2       9.700  98.199  56.677  1.00  0.00    -0.180 SA
ATOM     36  HG  CYS B   2       8.438  98.603  56.799  1.00  0.00     0.101 HD
ENDBRANCH  34  35
ENDBRANCH  18  34
ENDBRANCH  15  18
ENDBRANCH   6  14
ENDBRANCH   3   6
ENDBRANCH   1   2
BRANCH   1  37
ATOM     37  CB  GLU B   4       7.399  93.088  61.792  1.00  0.00     0.045 C 
BRANCH  37  38
ATOM     38  CG  GLU B   4       7.429  93.930  60.527  1.00  0.00     0.116 C 
BRANCH  38  39
ATOM     39  CD  GLU B   4       6.045  94.200  59.969  1.00  0.00     0.172 C 
ATOM     40  OE1 GLU B   4       5.055  93.918  60.675  1.00  0.00    -0.648 OA
ATOM     41  OE2 GLU B   4       5.952  94.693  58.826  1.00  0.00    -0.648 OA
ENDBRANCH  38  39
ENDBRANCH  37  38
ENDBRANCH   1  37
BRANCH   1  42
ATOM     42  C   GLU B   4       9.076  92.029  63.311  1.00  0.00     0.241 C 
ATOM     43  N   THR B   5      10.046  92.117  64.216  1.00  7.70    -0.344 N 
ATOM     44  H   THR B   5      10.392  93.002  64.458  1.00  0.23     0.163 HD
ATOM     45  O   GLU B   4       8.586  90.958  62.953  1.00  0.00    -0.271 OA
BRANCH  43  46
ATOM     46  CA  THR B   5      10.610  90.935  64.861  1.00  7.88     0.205 C 
BRANCH  46  47
ATOM     47  CB  THR B   5      12.132  90.923  64.711  1.00  4.05     0.146 C 
ATOM     48  CG2 THR B   5      12.593  90.535  63.323  1.00  3.72     0.042 C 
BRANCH  47  49
ATOM     49  OG1 THR B   5      12.673  92.199  65.002  1.00  7.31    -0.393 OA
ATOM     50  HG1 THR B   5      12.133  92.877  64.592  1.00  0.23     0.210 HD
ENDBRANCH  47  49
ENDBRANCH  46  47
BRANCH  46  51
ATOM     51  C   THR B   5      10.232  90.897  66.338  1.00  7.05     0.243 C 
ATOM     52  N   TRP B   6       8.943  90.726  66.612  1.00  0.00    -0.346 N 
ATOM     53  H   TRP B   6       8.305  90.633  65.874  1.00  0.23     0.163 HD
ATOM     54  O   THR B   5      11.091  91.023  67.211  1.00  6.06    -0.271 OA
BRANCH  52  55
ATOM     55  CA  TRP B   6       8.454  90.677  67.984  1.00  0.00     0.181 C 
BRANCH  55  56
ATOM     56  CB  TRP B   6       6.975  91.063  68.031  1.00  0.00     0.075 C 
BRANCH  56  57
ATOM     57  CG  TRP B   6       6.486  91.662  66.748  1.00  0.00    -0.028 A 
ATOM     58  CD2 TRP B   6       5.764  90.990  65.709  1.00  0.00    -0.002 A 
ATOM     59  CE2 TRP B   6       5.506  91.938  64.701  1.00  0.00     0.042 A 
ATOM     60  CE3 TRP B   6       5.312  89.680  65.534  1.00  0.00     0.014 A 
ATOM     61  CZ2 TRP B   6       4.815  91.615  63.536  1.00  0.00     0.030 A 
ATOM     62  NE1 TRP B   6       6.046  93.130  65.108  1.00  0.00    -0.365 N 
ATOM     63  CH2 TRP B   6       4.384  90.325  63.389  1.00  0.00     0.002 A 
ATOM     64  CZ3 TRP B   6       4.626  89.361  64.376  1.00  0.00     0.001 A 
ATOM     65  HE1 TRP B   6       6.019  93.971  64.604  1.00  0.23     0.165 HD
ATOM     66  CD1 TRP B   6       6.633  92.956  66.338  1.00  0.00     0.096 A 
ENDBRANCH  56  57
ENDBRANCH  55  56
BRANCH  55  67
ATOM     67  C   TRP B   6       8.655  89.290  68.585  1.00  0.00     0.241 C 
ATOM     68  N   VAL B   7       7.941  88.308  68.042  1.00  6.11    -0.344 N 
ATOM     69  H   VAL B   7       7.335  88.514  67.300  1.00  0.23     0.163 HD
ATOM     70  O   TRP B   6       9.436  89.114  69.520  1.00  0.00    -0.271 OA
BRANCH  68  71
ATOM     71  CA  VAL B   7       8.035  86.936  68.523  1.00  5.65     0.189 C 
BRANCH  71  72
ATOM     72  CB  VAL B   7       6.664  86.417  68.999  1.00  1.15     0.010 C 
ATOM     73  CG1 VAL B   7       6.572  86.466  70.517  1.00  4.96     0.012 C 
ATOM     74  CG2 VAL B   7       5.536  87.217  68.365  1.00  9.83     0.012 C 
ENDBRANCH  71  72
BRANCH  71  75
ATOM     75  C   VAL B   7       8.570  86.007  67.437  1.00  4.44     0.197 C 
ATOM     76  OXT VAL B   7       8.598  84.781  67.668  1.00  0.00    -0.646 OA
ATOM     77  O   VAL B   7       8.955  86.516  66.364  1.00  0.00    -0.646 OA
ENDBRANCH  71  75
ENDBRANCH  68  71
ENDBRANCH  55  67
ENDBRANCH  52  55
ENDBRANCH  46  51
ENDBRANCH  43  46
ENDBRANCH   1  42
TORSDOF 31
ENDMDL
MODEL 3
REMARK VINA RESULT:      -8.1      2.470      4.995
REMARK  31 active torsions:
REMARK  status: ('A' for Active; 'I' for Inactive)
REMARK    1  A    between atoms: N_1  and  CA_2 
REMARK    2  A    between atoms: CA_2  and  CB_5 
REMARK    3  A    between atoms: CA_2  and  C_3 
REMARK       I    between atoms: C_3  and  N_14 
REMARK    4  A    between atoms: CB_5  and  CG_6 
REMARK    5  A    between atoms: CG_6  and  CD_7 
REMARK    6  A    between atoms: CD_7  and  CE_8 
REMARK    7  A    between atoms: CE_8  and  NZ_9 
REMARK    8  A    between atoms: N_14  and  CA_15 
REMARK    9  A    between atoms: CA_15  and  C_16 
REMARK   10  A    between atoms: CA_15  and  CB_18 
REMARK       I    between atoms: C_16  and  N_22 
REMARK   11  A    between atoms: CB_18  and  SG_19 
REMARK   12  A    between atoms: N_22  and  CA_23 
REMARK   13  A    between atoms: CA_23  and  CB_26 
REMARK   14  A    between atoms: CA_23  and  C_24 
REMARK       I    between atoms: C_24  and  N_40 
REMARK   15  A    between atoms: CB_26  and  CG_27 
REMARK   16  A    between atoms: CA_34  and  N_40 
REMARK   17  A    between atoms: CA_34  and  CB_36 
REMARK   18  A    between atoms: CA_34  and  C_35 
REMARK       I    between atoms: C_35  and  N_50 
REMARK   19  A    between atoms: CB_36  and  CG_37 
REMARK   20  A    between atoms: CG_37  and  CD_38 
REMARK   21  A    between atoms: CA_44  and  N_50 
REMARK   22  A    between atoms: CA_44  and  CB_46 
REMARK   23  A    between atoms: CA_44  and  C_45 
REMARK       I    between atoms: C_45  and  N_66 
REMARK   24  A    between atoms: CB_46  and  OG1_52 
REMARK   25  A    between atoms: CA_53  and  CB_55 
REMARK   26  A    between atoms: CA_53  and  N_66 
REMARK   27  A    between atoms: CA_53  and  C_54 
REMARK       I    between atoms: C_54  and  N_75 
REMARK   28  A    between atoms: CB_55  and  CG_56 
REMARK   29  A    between atoms: CA_69  and  N_75 
REMARK   30  A    between atoms: CA_69  and  CB_71 
REMARK   31  A    between atoms: CA_69  and  C_70 
ROOT
ATOM      1  CA  GLU B   4      10.186  92.403  63.807  1.00  0.00     0.177 C 
ENDROOT
BRANCH   1   2
ATOM      2  N   GLU B   4      11.110  93.432  63.334  1.00  0.00    -0.346 N 
ATOM      3  C   PHE B   3      10.774  94.292  62.376  1.00  0.00     0.241 C 
ATOM      4  O   PHE B   3       9.655  94.268  61.839  1.00  0.00    -0.271 OA
ATOM      5  H   GLU B   4      12.003  93.493  63.731  1.00  0.23     0.163 HD
BRANCH   3   6
ATOM      6  CA  PHE B   3      11.793  95.331  61.972  1.00  0.00     0.180 C 
BRANCH   6   7
ATOM      7  CB  PHE B   3      12.421  95.945  63.259  1.00  0.00     0.073 C 
BRANCH   7   8
ATOM      8  CG  PHE B   3      13.951  95.859  63.383  1.00  0.00    -0.056 A 
ATOM      9  CD1 PHE B   3      14.634  94.797  62.778  1.00  0.00     0.007 A 
ATOM     10  CE1 PHE B   3      16.007  94.659  62.948  1.00  0.00     0.001 A 
ATOM     11  CZ  PHE B   3      16.709  95.591  63.709  1.00  0.00     0.000 A 
ATOM     12  CE2 PHE B   3      16.038  96.658  64.304  1.00  0.00     0.001 A 
ATOM     13  CD2 PHE B   3      14.661  96.790  64.143  1.00  0.00     0.007 A 
ENDBRANCH   7   8
ENDBRANCH   6   7
BRANCH   6  14
ATOM     14  N   PHE B   3      11.177  96.380  61.165  1.00  0.00    -0.346 N 
ATOM     15  C   CYS B   2      11.867  97.027  60.207  1.00  0.00     0.241 C 
ATOM     16  O   CYS B   2      13.044  96.779  59.962  1.00  0.00    -0.271 OA
ATOM     17  H   PHE B   3      10.243  96.619  61.323  1.00  0.00     0.163 HD
BRANCH  15  18
ATOM     18  CA  CYS B   2      11.092  98.058  59.419  1.00  0.00     0.185 C 
BRANCH  18  19
ATOM     19  N   CYS B   2      11.902  98.603  58.333  1.00  0.00    -0.345 N 
ATOM     20  H   CYS B   2      12.408  97.989  57.756  1.00  0.00     0.163 HD
ATOM     21  C   LYS B   1      11.971  99.918  58.105  1.00  0.00     0.254 C 
ATOM     22  O   LYS B   1      11.317 100.734  58.763  1.00  0.00    -0.271 OA
BRANCH  21  23
ATOM     23  CA  LYS B   1      12.860 100.352  56.963  1.00  0.00     0.350 C 
BRANCH  23  24
ATOM     24  N   LYS B   1      14.196  99.777  57.092  1.00  0.00     0.312 N 
ATOM     25  H   LYS B   1      14.183  99.004  57.828  1.00  0.00     0.359 HD
ENDBRANCH  23  24
BRANCH  23  26
ATOM     26  CB  LYS B   1      12.249  99.938  55.596  1.00  0.00     0.048 C 
BRANCH  26  27
ATOM     27  CG  LYS B   1      13.070 100.434  54.380  1.00  0.00     0.004 C 
BRANCH  27  28
ATOM     28  CD  LYS B   1      13.036  99.508  53.160  1.00  0.00     0.027 C 
BRANCH  28  29
ATOM     29  CE  LYS B   1      14.473  99.146  52.760  1.00  0.00     0.229 C 
BRANCH  29  30
ATOM     30  NZ  LYS B   1      14.891  99.985  51.623  1.00  0.00    -0.079 N 
ATOM     31  HZ3 LYS B   1      14.060 100.458  51.298  1.00  0.00     0.274 HD
ATOM     32  HZ2 LYS B   1      15.305  99.420  50.874  1.00  0.00     0.274 HD
ATOM     33  HZ1 LYS B   1      15.616 100.651  51.912  1.00  0.00     0.274 HD
ENDBRANCH  29  30
ENDBRANCH  28  29
ENDBRANCH  27  28
ENDBRANCH  26  27
ENDBRANCH  23  26
ENDBRANCH  21  23
ENDBRANCH  18  19
BRANCH  18  34
ATOM     34  CB  CYS B   2       9.792  97.486  58.820  1.00  0.00     0.105 C 
BRANCH  34  35
ATOM     35  SG  CYS B   2       9.682  97.859  57.055  1.00  0.00    -0.180 SA
ATOM     36  HG  CYS B   2      10.178  96.705  56.617  1.00  0.00     0.101 HD
ENDBRANCH  34  35
ENDBRANCH  18  34
ENDBRANCH  15  18
ENDBRANCH   6  14
ENDBRANCH   3   6
ENDBRANCH   1   2
BRANCH   1  37
ATOM     37  CB  GLU B   4      10.792  91.639  64.985  1.00  0.00     0.045 C 
BRANCH  37  38
ATOM     38  CG  GLU B   4      12.163  92.151  65.396  1.00  0.00     0.116 C 
BRANCH  38  39
ATOM     39  CD  GLU B   4      13.179  91.036  65.565  1.00  0.00     0.172 C 
ATOM     40  OE1 GLU B   4      13.371  90.260  64.607  1.00  0.00    -0.648 OA
ATOM     41  OE2 GLU B   4      13.780  90.942  66.655  1.00  0.00    -0.648 OA
ENDBRANCH  38  39
ENDBRANCH  37  38
ENDBRANCH   1  37
BRANCH   1  42
ATOM     42  C   GLU B   4       8.854  93.019  64.224  1.00  0.00     0.241 C 
ATOM     43  N   THR B   5       7.809  92.734  63.452  1.00  7.70    -0.344 N 
ATOM     44  H   THR B   5       7.940  92.157  62.670  1.00  0.23     0.163 HD
ATOM     45  O   GLU B   4       8.775  93.733  65.225  1.00  0.00    -0.271 OA
BRANCH  43  46
ATOM     46  CA  THR B   5       6.475  93.252  63.736  1.00  7.88     0.205 C 
BRANCH  46  47
ATOM     47  CB  THR B   5       5.817  93.757  62.450  1.00  4.05     0.146 C 
ATOM     48  CG2 THR B   5       5.577  92.663  61.433  1.00  3.72     0.042 C 
BRANCH  47  49
ATOM     49  OG1 THR B   5       4.568  94.363  62.732  1.00  7.31    -0.393 OA
ATOM     50  HG1 THR B   5       4.391  95.048  62.083  1.00  0.23     0.210 HD
ENDBRANCH  47  49
ENDBRANCH  46  47
BRANCH  46  51
ATOM     51  C   THR B   5       5.605  92.176  64.377  1.00  7.05     0.243 C 
ATOM     52  N   TRP B   6       6.027  90.923  64.246  1.00  0.00    -0.346 N 
ATOM     53  H   TRP B   6       6.858  90.747  63.757  1.00  0.23     0.163 HD
ATOM     54  O   THR B   5       4.572  92.475  64.975  1.00  6.06    -0.271 OA
BRANCH  52  55
ATOM     55  CA  TRP B   6       5.284  89.804  64.810  1.00  0.00     0.181 C 
BRANCH  55  56
ATOM     56  CB  TRP B   6       5.210  88.657  63.801  1.00  0.00     0.075 C 
BRANCH  56  57
ATOM     57  CG  TRP B   6       6.085  88.875  62.604  1.00  0.00    -0.028 A 
ATOM     58  CD2 TRP B   6       5.655  89.023  61.245  1.00  0.00    -0.002 A 
ATOM     59  CE2 TRP B   6       6.810  89.214  60.463  1.00  0.00     0.042 A 
ATOM     60  CE3 TRP B   6       4.408  89.012  60.616  1.00  0.00     0.014 A 
ATOM     61  CZ2 TRP B   6       6.751  89.393  59.083  1.00  0.00     0.030 A 
ATOM     62  NE1 TRP B   6       7.890  89.183  61.306  1.00  0.00    -0.365 N 
ATOM     63  CH2 TRP B   6       5.518  89.377  58.492  1.00  0.00     0.002 A 
ATOM     64  CZ3 TRP B   6       4.352  89.190  59.245  1.00  0.00     0.001 A 
ATOM     65  HE1 TRP B   6       8.827  89.289  61.038  1.00  0.23     0.165 HD
ATOM     66  CD1 TRP B   6       7.445  88.979  62.590  1.00  0.00     0.096 A 
ENDBRANCH  56  57
ENDBRANCH  55  56
BRANCH  55  67
ATOM     67  C   TRP B   6       5.924  89.322  66.108  1.00  0.00     0.241 C 
ATOM     68  N   VAL B   7       7.251  89.237  66.109  1.00  6.11    -0.344 N 
ATOM     69  H   VAL B   7       7.745  89.482  65.299  1.00  0.23     0.163 HD
ATOM     70  O   TRP B   6       5.231  89.032  67.084  1.00  0.00    -0.271 OA
BRANCH  68  71
ATOM     71  CA  VAL B   7       7.989  88.788  67.282  1.00  5.65     0.189 C 
BRANCH  71  72
ATOM     72  CB  VAL B   7       8.774  87.496  66.986  1.00  1.15     0.010 C 
ATOM     73  CG1 VAL B   7       8.155  86.315  67.719  1.00  4.96     0.012 C 
ATOM     74  CG2 VAL B   7       8.830  87.232  65.489  1.00  9.83     0.012 C 
ENDBRANCH  71  72
BRANCH  71  75
ATOM     75  C   VAL B   7       8.959  89.862  67.767  1.00  4.44     0.197 C 
ATOM     76  OXT VAL B   7      10.071  89.501  68.204  1.00  0.00    -0.646 OA
ATOM     77  O   VAL B   7       8.597  91.055  67.704  1.00  0.00    -0.646 OA
ENDBRANCH  71  75
ENDBRANCH  68  71
ENDBRANCH  55  67
ENDBRANCH  52  55
ENDBRANCH  46  51
ENDBRANCH  43  46
ENDBRANCH   1  42
TORSDOF 31
ENDMDL
MODEL 4
REMARK VINA RESULT:      -7.0      4.626      8.808
REMARK  31 active torsions:
REMARK  status: ('A' for Active; 'I' for Inactive)
REMARK    1  A    between atoms: N_1  and  CA_2 
REMARK    2  A    between atoms: CA_2  and  CB_5 
REMARK    3  A    between atoms: CA_2  and  C_3 
REMARK       I    between atoms: C_3  and  N_14 
REMARK    4  A    between atoms: CB_5  and  CG_6 
REMARK    5  A    between atoms: CG_6  and  CD_7 
REMARK    6  A    between atoms: CD_7  and  CE_8 
REMARK    7  A    between atoms: CE_8  and  NZ_9 
REMARK    8  A    between atoms: N_14  and  CA_15 
REMARK    9  A    between atoms: CA_15  and  C_16 
REMARK   10  A    between atoms: CA_15  and  CB_18 
REMARK       I    between atoms: C_16  and  N_22 
REMARK   11  A    between atoms: CB_18  and  SG_19 
REMARK   12  A    between atoms: N_22  and  CA_23 
REMARK   13  A    between atoms: CA_23  and  CB_26 
REMARK   14  A    between atoms: CA_23  and  C_24 
REMARK       I    between atoms: C_24  and  N_40 
REMARK   15  A    between atoms: CB_26  and  CG_27 
REMARK   16  A    between atoms: CA_34  and  N_40 
REMARK   17  A    between atoms: CA_34  and  CB_36 
REMARK   18  A    between atoms: CA_34  and  C_35 
REMARK       I    between atoms: C_35  and  N_50 
REMARK   19  A    between atoms: CB_36  and  CG_37 
REMARK   20  A    between atoms: CG_37  and  CD_38 
REMARK   21  A    between atoms: CA_44  and  N_50 
REMARK   22  A    between atoms: CA_44  and  CB_46 
REMARK   23  A    between atoms: CA_44  and  C_45 
REMARK       I    between atoms: C_45  and  N_66 
REMARK   24  A    between atoms: CB_46  and  OG1_52 
REMARK   25  A    between atoms: CA_53  and  CB_55 
REMARK   26  A    between atoms: CA_53  and  N_66 
REMARK   27  A    between atoms: CA_53  and  C_54 
REMARK       I    between atoms: C_54  and  N_75 
REMARK   28  A    between atoms: CB_55  and  CG_56 
REMARK   29  A    between atoms: CA_69  and  N_75 
REMARK   30  A    between atoms: CA_69  and  CB_71 
REMARK   31  A    between atoms: CA_69  and  C_70 
ROOT
ATOM      1  CA  GLU B   4      10.298  90.137  65.737  1.00  0.00     0.177 C 
ENDROOT
BRANCH   1   2
ATOM      2  N   GLU B   4       9.961  91.346  64.988  1.00  0.00    -0.346 N 
ATOM      3  C   PHE B   3       9.450  91.295  63.761  1.00  0.00     0.241 C 
ATOM      4  O   PHE B   3       9.227  90.215  63.190  1.00  0.00    -0.271 OA
ATOM      5  H   GLU B   4      10.116  92.222  65.399  1.00  0.23     0.163 HD
BRANCH   3   6
ATOM      6  CA  PHE B   3       9.117  92.601  63.080  1.00  0.00     0.180 C 
BRANCH   6   7
ATOM      7  CB  PHE B   3       9.632  93.775  63.966  1.00  0.00     0.073 C 
BRANCH   7   8
ATOM      8  CG  PHE B   3      10.938  94.451  63.516  1.00  0.00    -0.056 A 
ATOM      9  CD1 PHE B   3      12.069  94.384  64.337  1.00  0.00     0.007 A 
ATOM     10  CE1 PHE B   3      13.233  95.057  63.984  1.00  0.00     0.001 A 
ATOM     11  CZ  PHE B   3      13.279  95.789  62.800  1.00  0.00     0.000 A 
ATOM     12  CE2 PHE B   3      12.160  95.851  61.971  1.00  0.00     0.001 A 
ATOM     13  CD2 PHE B   3      10.991  95.186  62.330  1.00  0.00     0.007 A 
ENDBRANCH   7   8
ENDBRANCH   6   7
BRANCH   6  14
ATOM     14  N   PHE B   3       7.679  92.727  62.867  1.00  0.00    -0.346 N 
ATOM     15  C   CYS B   2       7.179  93.293  61.752  1.00  0.00     0.241 C 
ATOM     16  O   CYS B   2       7.898  93.737  60.861  1.00  0.00    -0.271 OA
ATOM     17  H   PHE B   3       7.063  92.394  63.549  1.00  0.00     0.163 HD
BRANCH  15  18
ATOM     18  CA  CYS B   2       5.672  93.316  61.643  1.00  0.00     0.185 C 
BRANCH  18  19
ATOM     19  N   CYS B   2       5.141  91.969  61.456  1.00  0.00    -0.345 N 
ATOM     20  H   CYS B   2       5.181  91.329  62.201  1.00  0.00     0.163 HD
ATOM     21  C   LYS B   1       4.601  91.585  60.296  1.00  0.00     0.254 C 
ATOM     22  O   LYS B   1       4.475  92.361  59.342  1.00  0.00    -0.271 OA
BRANCH  21  23
ATOM     23  CA  LYS B   1       4.106  90.159  60.228  1.00  0.00     0.350 C 
BRANCH  23  24
ATOM     24  N   LYS B   1       2.853  90.006  60.961  1.00  0.00     0.312 N 
ATOM     25  H   LYS B   1       2.082  89.699  60.290  1.00  0.00     0.359 HD
ENDBRANCH  23  24
BRANCH  23  26
ATOM     26  CB  LYS B   1       3.902  89.712  58.755  1.00  0.00     0.048 C 
BRANCH  26  27
ATOM     27  CG  LYS B   1       2.510  89.088  58.488  1.00  0.00     0.004 C 
BRANCH  27  28
ATOM     28  CD  LYS B   1       2.440  87.569  58.666  1.00  0.00     0.027 C 
BRANCH  28  29
ATOM     29  CE  LYS B   1       1.278  87.014  57.831  1.00  0.00     0.229 C 
BRANCH  29  30
ATOM     30  NZ  LYS B   1       1.812  86.319  56.647  1.00  0.00    -0.079 N 
ATOM     31  HZ3 LYS B   1       1.808  85.334  56.870  1.00  0.00     0.274 HD
ATOM     32  HZ2 LYS B   1       2.761  86.638  56.423  1.00  0.00     0.274 HD
ATOM     33  HZ1 LYS B   1       1.240  86.522  55.819  1.00  0.00     0.274 HD
ENDBRANCH  29  30
ENDBRANCH  28  29
ENDBRANCH  27  28
ENDBRANCH  26  27
ENDBRANCH  23  26
ENDBRANCH  21  23
ENDBRANCH  18  19
BRANCH  18  34
ATOM     34  CB  CYS B   2       5.002  93.939  62.884  1.00  0.00     0.105 C 
BRANCH  34  35
ATOM     35  SG  CYS B   2       4.363  92.652  63.980  1.00  0.00    -0.180 SA
ATOM     36  HG  CYS B   2       5.517  92.015  64.167  1.00  0.00     0.101 HD
ENDBRANCH  34  35
ENDBRANCH  18  34
ENDBRANCH  15  18
ENDBRANCH   6  14
ENDBRANCH   3   6
ENDBRANCH   1   2
BRANCH   1  37
ATOM     37  CB  GLU B   4      11.166  90.480  66.949  1.00  0.00     0.045 C 
BRANCH  37  38
ATOM     38  CG  GLU B   4      12.639  90.171  66.744  1.00  0.00     0.116 C 
BRANCH  38  39
ATOM     39  CD  GLU B   4      13.488  91.422  66.613  1.00  0.00     0.172 C 
ATOM     40  OE1 GLU B   4      13.648  92.138  67.622  1.00  0.00    -0.648 OA
ATOM     41  OE2 GLU B   4      13.992  91.683  65.500  1.00  0.00    -0.648 OA
ENDBRANCH  38  39
ENDBRANCH  37  38
ENDBRANCH   1  37
BRANCH   1  42
ATOM     42  C   GLU B   4       9.036  89.413  66.196  1.00  0.00     0.241 C 
ATOM     43  N   THR B   5       8.305  90.036  67.116  1.00  7.70    -0.344 N 
ATOM     44  H   THR B   5       8.603  90.908  67.450  1.00  0.23     0.163 HD
ATOM     45  O   GLU B   4       8.731  88.318  65.724  1.00  0.00    -0.271 OA
BRANCH  43  46
ATOM     46  CA  THR B   5       7.071  89.460  67.642  1.00  7.88     0.205 C 
BRANCH  46  47
ATOM     47  CB  THR B   5       6.928  89.780  69.131  1.00  4.05     0.146 C 
ATOM     48  CG2 THR B   5       7.087  88.567  70.021  1.00  3.72     0.042 C 
BRANCH  47  49
ATOM     49  OG1 THR B   5       7.894  90.736  69.532  1.00  7.31    -0.393 OA
ATOM     50  HG1 THR B   5       8.509  90.890  68.812  1.00  0.23     0.210 HD
ENDBRANCH  47  49
ENDBRANCH  46  47
BRANCH  46  51
ATOM     51  C   THR B   5       5.862  89.989  66.878  1.00  7.05     0.243 C 
ATOM     52  N   TRP B   6       5.147  89.089  66.211  1.00  0.00    -0.346 N 
ATOM     53  H   TRP B   6       5.418  88.147  66.238  1.00  0.23     0.163 HD
ATOM     54  O   THR B   5       5.585  91.188  66.889  1.00  6.06    -0.271 OA
BRANCH  52  55
ATOM     55  CA  TRP B   6       3.971  89.467  65.439  1.00  0.00     0.181 C 
BRANCH  55  56
ATOM     56  CB  TRP B   6       3.755  88.482  64.289  1.00  0.00     0.075 C 
BRANCH  56  57
ATOM     57  CG  TRP B   6       4.921  88.413  63.351  1.00  0.00    -0.028 A 
ATOM     58  CD2 TRP B   6       5.123  87.456  62.304  1.00  0.00    -0.002 A 
ATOM     59  CE2 TRP B   6       6.343  87.776  61.678  1.00  0.00     0.042 A 
ATOM     60  CE3 TRP B   6       4.392  86.361  61.838  1.00  0.00     0.014 A 
ATOM     61  CZ2 TRP B   6       6.844  87.039  60.609  1.00  0.00     0.030 A 
ATOM     62  NE1 TRP B   6       6.858  88.875  62.314  1.00  0.00    -0.365 N 
ATOM     63  CH2 TRP B   6       6.109  85.971  60.171  1.00  0.00     0.002 A 
ATOM     64  CZ3 TRP B   6       4.893  85.630  60.775  1.00  0.00     0.001 A 
ATOM     65  HE1 TRP B   6       7.702  89.321  62.090  1.00  0.23     0.165 HD
ATOM     66  CD1 TRP B   6       5.998  89.251  63.318  1.00  0.00     0.096 A 
ENDBRANCH  56  57
ENDBRANCH  55  56
BRANCH  55  67
ATOM     67  C   TRP B   6       2.731  89.522  66.325  1.00  0.00     0.241 C 
ATOM     68  N   VAL B   7       2.527  90.664  66.975  1.00  6.11    -0.344 N 
ATOM     69  H   VAL B   7       3.163  91.399  66.858  1.00  0.23     0.163 HD
ATOM     70  O   TRP B   6       1.980  88.551  66.420  1.00  0.00    -0.271 OA
BRANCH  68  71
ATOM     71  CA  VAL B   7       1.382  90.849  67.857  1.00  5.65     0.189 C 
BRANCH  71  72
ATOM     72  CB  VAL B   7       1.825  90.958  69.329  1.00  1.15     0.010 C 
ATOM     73  CG1 VAL B   7       0.784  90.334  70.247  1.00  4.96     0.012 C 
ATOM     74  CG2 VAL B   7       3.184  90.305  69.532  1.00  9.83     0.012 C 
ENDBRANCH  71  72
BRANCH  71  75
ATOM     75  C   VAL B   7       0.592  92.099  67.480  1.00  4.44     0.197 C 
ATOM     76  OXT VAL B   7       0.633  93.079  68.250  1.00  0.00    -0.646 OA
ATOM     77  O   VAL B   7      -0.060  92.085  66.415  1.00  0.00    -0.646 OA
ENDBRANCH  71  75
ENDBRANCH  68  71
ENDBRANCH  55  67
ENDBRANCH  52  55
ENDBRANCH  46  51
ENDBRANCH  43  46
ENDBRANCH   1  42
TORSDOF 31
ENDMDL
MODEL 5
REMARK VINA RESULT:      -6.7      4.818      8.630
REMARK  31 active torsions:
REMARK  status: ('A' for Active; 'I' for Inactive)
REMARK    1  A    between atoms: N_1  and  CA_2 
REMARK    2  A    between atoms: CA_2  and  CB_5 
REMARK    3  A    between atoms: CA_2  and  C_3 
REMARK       I    between atoms: C_3  and  N_14 
REMARK    4  A    between atoms: CB_5  and  CG_6 
REMARK    5  A    between atoms: CG_6  and  CD_7 
REMARK    6  A    between atoms: CD_7  and  CE_8 
REMARK    7  A    between atoms: CE_8  and  NZ_9 
REMARK    8  A    between atoms: N_14  and  CA_15 
REMARK    9  A    between atoms: CA_15  and  C_16 
REMARK   10  A    between atoms: CA_15  and  CB_18 
REMARK       I    between atoms: C_16  and  N_22 
REMARK   11  A    between atoms: CB_18  and  SG_19 
REMARK   12  A    between atoms: N_22  and  CA_23 
REMARK   13  A    between atoms: CA_23  and  CB_26 
REMARK   14  A    between atoms: CA_23  and  C_24 
REMARK       I    between atoms: C_24  and  N_40 
REMARK   15  A    between atoms: CB_26  and  CG_27 
REMARK   16  A    between atoms: CA_34  and  N_40 
REMARK   17  A    between atoms: CA_34  and  CB_36 
REMARK   18  A    between atoms: CA_34  and  C_35 
REMARK       I    between atoms: C_35  and  N_50 
REMARK   19  A    between atoms: CB_36  and  CG_37 
REMARK   20  A    between atoms: CG_37  and  CD_38 
REMARK   21  A    between atoms: CA_44  and  N_50 
REMARK   22  A    between atoms: CA_44  and  CB_46 
REMARK   23  A    between atoms: CA_44  and  C_45 
REMARK       I    between atoms: C_45  and  N_66 
REMARK   24  A    between atoms: CB_46  and  OG1_52 
REMARK   25  A    between atoms: CA_53  and  CB_55 
REMARK   26  A    between atoms: CA_53  and  N_66 
REMARK   27  A    between atoms: CA_53  and  C_54 
REMARK       I    between atoms: C_54  and  N_75 
REMARK   28  A    between atoms: CB_55  and  CG_56 
REMARK   29  A    between atoms: CA_69  and  N_75 
REMARK   30  A    between atoms: CA_69  and  CB_71 
REMARK   31  A    between atoms: CA_69  and  C_70 
ROOT
ATOM      1  CA  GLU B   4      10.080  89.686  65.531  1.00  0.00     0.177 C 
ENDROOT
BRANCH   1   2
ATOM      2  N   GLU B   4       9.781  90.987  64.935  1.00  0.00    -0.346 N 
ATOM      3  C   PHE B   3       9.222  91.098  63.733  1.00  0.00     0.241 C 
ATOM      4  O   PHE B   3       8.919  90.101  63.058  1.00  0.00    -0.271 OA
ATOM      5  H   GLU B   4       9.998  91.803  65.432  1.00  0.23     0.163 HD
BRANCH   3   6
ATOM      6  CA  PHE B   3       8.934  92.487  63.215  1.00  0.00     0.180 C 
BRANCH   6   7
ATOM      7  CB  PHE B   3       9.504  93.528  64.225  1.00  0.00     0.073 C 
BRANCH   7   8
ATOM      8  CG  PHE B   3      10.777  94.274  63.794  1.00  0.00    -0.056 A 
ATOM      9  CD1 PHE B   3      10.793  94.970  62.580  1.00  0.00     0.007 A 
ATOM     10  CE1 PHE B   3      11.960  95.582  62.138  1.00  0.00     0.001 A 
ATOM     11  CZ  PHE B   3      13.115  95.518  62.915  1.00  0.00     0.000 A 
ATOM     12  CE2 PHE B   3      13.104  94.837  64.131  1.00  0.00     0.001 A 
ATOM     13  CD2 PHE B   3      11.938  94.214  64.569  1.00  0.00     0.007 A 
ENDBRANCH   7   8
ENDBRANCH   6   7
BRANCH   6  14
ATOM     14  N   PHE B   3       7.500  92.692  63.038  1.00  0.00    -0.346 N 
ATOM     15  C   CYS B   2       7.005  93.295  61.941  1.00  0.00     0.241 C 
ATOM     16  O   CYS B   2       7.725  93.708  61.036  1.00  0.00    -0.271 OA
ATOM     17  H   PHE B   3       6.884  92.386  63.732  1.00  0.00     0.163 HD
BRANCH  15  18
ATOM     18  CA  CYS B   2       5.499  93.400  61.870  1.00  0.00     0.185 C 
BRANCH  18  19
ATOM     19  N   CYS B   2       4.913  92.164  61.359  1.00  0.00    -0.345 N 
ATOM     20  H   CYS B   2       4.794  91.401  61.967  1.00  0.00     0.163 HD
ATOM     21  C   LYS B   1       4.533  92.046  60.083  1.00  0.00     0.254 C 
ATOM     22  O   LYS B   1       4.609  92.986  59.286  1.00  0.00    -0.271 OA
BRANCH  21  23
ATOM     23  CA  LYS B   1       3.958  90.708  59.679  1.00  0.00     0.350 C 
BRANCH  23  24
ATOM     24  N   LYS B   1       2.750  90.879  58.877  1.00  0.00     0.312 N 
ATOM     25  H   LYS B   1       2.935  90.551  57.878  1.00  0.00     0.359 HD
ENDBRANCH  23  24
BRANCH  23  26
ATOM     26  CB  LYS B   1       4.998  89.877  58.878  1.00  0.00     0.048 C 
BRANCH  26  27
ATOM     27  CG  LYS B   1       5.432  88.576  59.599  1.00  0.00     0.004 C 
BRANCH  27  28
ATOM     28  CD  LYS B   1       6.527  88.759  60.654  1.00  0.00     0.027 C 
BRANCH  28  29
ATOM     29  CE  LYS B   1       5.886  88.787  62.048  1.00  0.00     0.229 C 
BRANCH  29  30
ATOM     30  NZ  LYS B   1       6.782  88.126  63.013  1.00  0.00    -0.079 N 
ATOM     31  HZ3 LYS B   1       7.036  88.829  63.692  1.00  0.00     0.274 HD
ATOM     32  HZ2 LYS B   1       7.614  87.747  62.550  1.00  0.00     0.274 HD
ATOM     33  HZ1 LYS B   1       6.312  87.327  63.455  1.00  0.00     0.274 HD
ENDBRANCH  29  30
ENDBRANCH  28  29
ENDBRANCH  27  28
ENDBRANCH  26  27
ENDBRANCH  23  26
ENDBRANCH  21  23
ENDBRANCH  18  19
BRANCH  18  34
ATOM     34  CB  CYS B   2       4.865  93.714  63.239  1.00  0.00     0.105 C 
BRANCH  34  35
ATOM     35  SG  CYS B   2       4.055  92.248  63.920  1.00  0.00    -0.180 SA
ATOM     36  HG  CYS B   2       5.046  91.393  63.680  1.00  0.00     0.101 HD
ENDBRANCH  34  35
ENDBRANCH  18  34
ENDBRANCH  15  18
ENDBRANCH   6  14
ENDBRANCH   3   6
ENDBRANCH   1   2
BRANCH   1  37
ATOM     37  CB  GLU B   4      11.010  89.848  66.735  1.00  0.00     0.045 C 
BRANCH  37  38
ATOM     38  CG  GLU B   4      11.843  91.119  66.688  1.00  0.00     0.116 C 
BRANCH  38  39
ATOM     39  CD  GLU B   4      13.133  90.946  65.908  1.00  0.00     0.172 C 
ATOM     40  OE1 GLU B   4      14.179  91.438  66.378  1.00  0.00    -0.648 OA
ATOM     41  OE2 GLU B   4      13.094  90.319  64.829  1.00  0.00    -0.648 OA
ENDBRANCH  38  39
ENDBRANCH  37  38
ENDBRANCH   1  37
BRANCH   1  42
ATOM     42  C   GLU B   4       8.799  88.979  65.963  1.00  0.00     0.241 C 
ATOM     43  N   THR B   5       8.011  89.651  66.797  1.00  7.70    -0.344 N 
ATOM     44  H   THR B   5       8.282  90.546  67.090  1.00  0.23     0.163 HD
ATOM     45  O   GLU B   4       8.530  87.852  65.545  1.00  0.00    -0.271 OA
BRANCH  43  46
ATOM     46  CA  THR B   5       6.753  89.095  67.287  1.00  7.88     0.205 C 
BRANCH  46  47
ATOM     47  CB  THR B   5       6.419  89.671  68.664  1.00  4.05     0.146 C 
ATOM     48  CG2 THR B   5       7.615  90.282  69.362  1.00  3.72     0.042 C 
BRANCH  47  49
ATOM     49  OG1 THR B   5       5.425  90.675  68.560  1.00  7.31    -0.393 OA
ATOM     50  HG1 THR B   5       5.713  91.347  67.939  1.00  0.23     0.210 HD
ENDBRANCH  47  49
ENDBRANCH  46  47
BRANCH  46  51
ATOM     51  C   THR B   5       5.619  89.390  66.311  1.00  7.05     0.243 C 
ATOM     52  N   TRP B   6       4.430  88.883  66.620  1.00  0.00    -0.346 N 
ATOM     53  H   TRP B   6       4.333  88.356  67.440  1.00  0.23     0.163 HD
ATOM     54  O   THR B   5       5.818  90.061  65.298  1.00  6.06    -0.271 OA
BRANCH  52  55
ATOM     55  CA  TRP B   6       3.267  89.090  65.767  1.00  0.00     0.181 C 
BRANCH  55  56
ATOM     56  CB  TRP B   6       2.972  87.825  64.960  1.00  0.00     0.075 C 
BRANCH  56  57
ATOM     57  CG  TRP B   6       2.526  88.116  63.559  1.00  0.00    -0.028 A 
ATOM     58  CD2 TRP B   6       2.675  87.263  62.418  1.00  0.00    -0.002 A 
ATOM     59  CE2 TRP B   6       2.108  87.935  61.319  1.00  0.00     0.042 A 
ATOM     60  CE3 TRP B   6       3.234  85.998  62.220  1.00  0.00     0.014 A 
ATOM     61  CZ2 TRP B   6       2.084  87.382  60.041  1.00  0.00     0.030 A 
ATOM     62  NE1 TRP B   6       1.637  89.141  61.771  1.00  0.00    -0.365 N 
ATOM     63  CH2 TRP B   6       2.637  86.142  59.875  1.00  0.00     0.002 A 
ATOM     64  CZ3 TRP B   6       3.208  85.450  60.949  1.00  0.00     0.001 A 
ATOM     65  HE1 TRP B   6       1.190  89.820  61.223  1.00  0.23     0.165 HD
ATOM     66  CD1 TRP B   6       1.892  89.241  63.117  1.00  0.00     0.096 A 
ENDBRANCH  56  57
ENDBRANCH  55  56
BRANCH  55  67
ATOM     67  C   TRP B   6       2.047  89.482  66.594  1.00  0.00     0.241 C 
ATOM     68  N   VAL B   7       2.279  90.270  67.640  1.00  6.11    -0.344 N 
ATOM     69  H   VAL B   7       3.196  90.558  67.827  1.00  0.23     0.163 HD
ATOM     70  O   TRP B   6       0.924  89.076  66.294  1.00  0.00    -0.271 OA
BRANCH  68  71
ATOM     71  CA  VAL B   7       1.202  90.716  68.515  1.00  5.65     0.189 C 
BRANCH  71  72
ATOM     72  CB  VAL B   7       1.534  90.434  69.994  1.00  1.15     0.010 C 
ATOM     73  CG1 VAL B   7       0.381  89.706  70.670  1.00  4.96     0.012 C 
ATOM     74  CG2 VAL B   7       2.821  89.633  70.113  1.00  9.83     0.012 C 
ENDBRANCH  71  72
BRANCH  71  75
ATOM     75  C   VAL B   7       0.933  92.208  68.341  1.00  4.44     0.197 C 
ATOM     76  OXT VAL B   7       0.742  92.898  69.363  1.00  0.00    -0.646 OA
ATOM     77  O   VAL B   7       0.916  92.672  67.182  1.00  0.00    -0.646 OA
ENDBRANCH  71  75
ENDBRANCH  68  71
ENDBRANCH  55  67
ENDBRANCH  52  55
ENDBRANCH  46  51
ENDBRANCH  43  46
ENDBRANCH   1  42
TORSDOF 31
ENDMDL
MODEL 6
REMARK VINA RESULT:      -6.2      3.495      8.006
REMARK  31 active torsions:
REMARK  status: ('A' for Active; 'I' for Inactive)
REMARK    1  A    between atoms: N_1  and  CA_2 
REMARK    2  A    between atoms: CA_2  and  CB_5 
REMARK    3  A    between atoms: CA_2  and  C_3 
REMARK       I    between atoms: C_3  and  N_14 
REMARK    4  A    between atoms: CB_5  and  CG_6 
REMARK    5  A    between atoms: CG_6  and  CD_7 
REMARK    6  A    between atoms: CD_7  and  CE_8 
REMARK    7  A    between atoms: CE_8  and  NZ_9 
REMARK    8  A    between atoms: N_14  and  CA_15 
REMARK    9  A    between atoms: CA_15  and  C_16 
REMARK   10  A    between atoms: CA_15  and  CB_18 
REMARK       I    between atoms: C_16  and  N_22 
REMARK   11  A    between atoms: CB_18  and  SG_19 
REMARK   12  A    between atoms: N_22  and  CA_23 
REMARK   13  A    between atoms: CA_23  and  CB_26 
REMARK   14  A    between atoms: CA_23  and  C_24 
REMARK       I    between atoms: C_24  and  N_40 
REMARK   15  A    between atoms: CB_26  and  CG_27 
REMARK   16  A    between atoms: CA_34  and  N_40 
REMARK   17  A    between atoms: CA_34  and  CB_36 
REMARK   18  A    between atoms: CA_34  and  C_35 
REMARK       I    between atoms: C_35  and  N_50 
REMARK   19  A    between atoms: CB_36  and  CG_37 
REMARK   20  A    between atoms: CG_37  and  CD_38 
REMARK   21  A    between atoms: CA_44  and  N_50 
REMARK   22  A    between atoms: CA_44  and  CB_46 
REMARK   23  A    between atoms: CA_44  and  C_45 
REMARK       I    between atoms: C_45  and  N_66 
REMARK   24  A    between atoms: CB_46  and  OG1_52 
REMARK   25  A    between atoms: CA_53  and  CB_55 
REMARK   26  A    between atoms: CA_53  and  N_66 
REMARK   27  A    between atoms: CA_53  and  C_54 
REMARK       I    between atoms: C_54  and  N_75 
REMARK   28  A    between atoms: CB_55  and  CG_56 
REMARK   29  A    between atoms: CA_69  and  N_75 
REMARK   30  A    between atoms: CA_69  and  CB_71 
REMARK   31  A    between atoms: CA_69  and  C_70 
ROOT
ATOM      1  CA  GLU B   4      14.234  93.537  63.148  1.00  0.00     0.177 C 
ENDROOT
BRANCH   1   2
ATOM      2  N   GLU B   4      12.936  94.033  62.696  1.00  0.00    -0.346 N 
ATOM      3  C   PHE B   3      12.830  95.004  61.793  1.00  0.00     0.241 C 
ATOM      4  O   PHE B   3      13.830  95.534  61.282  1.00  0.00    -0.271 OA
ATOM      5  H   GLU B   4      12.118  93.643  63.068  1.00  0.23     0.163 HD
BRANCH   3   6
ATOM      6  CA  PHE B   3      11.442  95.433  61.377  1.00  0.00     0.180 C 
BRANCH   6   7
ATOM      7  CB  PHE B   3      11.367  96.989  61.405  1.00  0.00     0.073 C 
BRANCH   7   8
ATOM      8  CG  PHE B   3      11.599  97.710  60.067  1.00  0.00    -0.056 A 
ATOM      9  CD1 PHE B   3      12.776  98.442  59.871  1.00  0.00     0.007 A 
ATOM     10  CE1 PHE B   3      12.964  99.166  58.700  1.00  0.00     0.001 A 
ATOM     11  CZ  PHE B   3      11.986  99.150  57.708  1.00  0.00     0.000 A 
ATOM     12  CE2 PHE B   3      10.817  98.413  57.890  1.00  0.00     0.001 A 
ATOM     13  CD2 PHE B   3      10.622  97.697  59.069  1.00  0.00     0.007 A 
ENDBRANCH   7   8
ENDBRANCH   6   7
BRANCH   6  14
ATOM     14  N   PHE B   3      10.432  94.866  62.265  1.00  0.00    -0.346 N 
ATOM     15  C   CYS B   2       9.296  94.326  61.785  1.00  0.00     0.241 C 
ATOM     16  O   CYS B   2       9.043  94.285  60.585  1.00  0.00    -0.271 OA
ATOM     17  H   PHE B   3      10.583  94.878  63.230  1.00  0.00     0.163 HD
BRANCH  15  18
ATOM     18  CA  CYS B   2       8.361  93.736  62.815  1.00  0.00     0.185 C 
BRANCH  18  19
ATOM     19  N   CYS B   2       7.557  92.663  62.237  1.00  0.00    -0.345 N 
ATOM     20  H   CYS B   2       7.996  91.826  61.966  1.00  0.00     0.163 HD
ATOM     21  C   LYS B   1       6.238  92.792  62.066  1.00  0.00     0.254 C 
ATOM     22  O   LYS B   1       5.623  93.799  62.434  1.00  0.00    -0.271 OA
BRANCH  21  23
ATOM     23  CA  LYS B   1       5.527  91.615  61.440  1.00  0.00     0.350 C 
BRANCH  23  24
ATOM     24  N   LYS B   1       4.081  91.817  61.440  1.00  0.00     0.312 N 
ATOM     25  H   LYS B   1       3.593  90.909  61.719  1.00  0.00     0.359 HD
ENDBRANCH  23  24
BRANCH  23  26
ATOM     26  CB  LYS B   1       6.017  91.381  59.984  1.00  0.00     0.048 C 
BRANCH  26  27
ATOM     27  CG  LYS B   1       5.899  89.907  59.524  1.00  0.00     0.004 C 
BRANCH  27  28
ATOM     28  CD  LYS B   1       7.210  89.274  59.048  1.00  0.00     0.027 C 
BRANCH  28  29
ATOM     29  CE  LYS B   1       6.897  88.158  58.042  1.00  0.00     0.229 C 
BRANCH  29  30
ATOM     30  NZ  LYS B   1       7.059  88.674  56.672  1.00  0.00    -0.079 N 
ATOM     31  HZ3 LYS B   1       6.127  88.834  56.316  1.00  0.00     0.274 HD
ATOM     32  HZ2 LYS B   1       7.566  88.008  56.080  1.00  0.00     0.274 HD
ATOM     33  HZ1 LYS B   1       7.616  89.537  56.673  1.00  0.00     0.274 HD
ENDBRANCH  29  30
ENDBRANCH  28  29
ENDBRANCH  27  28
ENDBRANCH  26  27
ENDBRANCH  23  26
ENDBRANCH  21  23
ENDBRANCH  18  19
BRANCH  18  34
ATOM     34  CB  CYS B   2       9.110  93.180  64.041  1.00  0.00     0.105 C 
BRANCH  34  35
ATOM     35  SG  CYS B   2       7.989  92.995  65.447  1.00  0.00    -0.180 SA
ATOM     36  HG  CYS B   2       7.199  92.075  64.900  1.00  0.00     0.101 HD
ENDBRANCH  34  35
ENDBRANCH  18  34
ENDBRANCH  15  18
ENDBRANCH   6  14
ENDBRANCH   3   6
ENDBRANCH   1   2
BRANCH   1  37
ATOM     37  CB  GLU B   4      14.833  94.477  64.194  1.00  0.00     0.045 C 
BRANCH  37  38
ATOM     38  CG  GLU B   4      16.023  95.272  63.681  1.00  0.00     0.116 C 
BRANCH  38  39
ATOM     39  CD  GLU B   4      16.202  96.592  64.406  1.00  0.00     0.172 C 
ATOM     40  OE1 GLU B   4      15.286  97.437  64.335  1.00  0.00    -0.648 OA
ATOM     41  OE2 GLU B   4      17.260  96.780  65.044  1.00  0.00    -0.648 OA
ENDBRANCH  38  39
ENDBRANCH  37  38
ENDBRANCH   1  37
BRANCH   1  42
ATOM     42  C   GLU B   4      14.105  92.132  63.731  1.00  0.00     0.241 C 
ATOM     43  N   THR B   5      12.968  91.864  64.366  1.00  7.70    -0.344 N 
ATOM     44  H   THR B   5      12.283  92.562  64.431  1.00  0.23     0.163 HD
ATOM     45  O   GLU B   4      15.014  91.312  63.604  1.00  0.00    -0.271 OA
BRANCH  43  46
ATOM     46  CA  THR B   5      12.710  90.560  64.969  1.00  7.88     0.205 C 
BRANCH  46  47
ATOM     47  CB  THR B   5      13.535  90.393  66.247  1.00  4.05     0.146 C 
ATOM     48  CG2 THR B   5      13.778  91.696  66.975  1.00  3.72     0.042 C 
BRANCH  47  49
ATOM     49  OG1 THR B   5      12.889  89.511  67.148  1.00  7.31    -0.393 OA
ATOM     50  HG1 THR B   5      13.504  88.829  67.425  1.00  0.23     0.210 HD
ENDBRANCH  47  49
ENDBRANCH  46  47
BRANCH  46  51
ATOM     51  C   THR B   5      11.226  90.397  65.283  1.00  7.05     0.243 C 
ATOM     52  N   TRP B   6      10.561  89.518  64.541  1.00  0.00    -0.346 N 
ATOM     53  H   TRP B   6      11.038  89.023  63.842  1.00  0.23     0.163 HD
ATOM     54  O   THR B   5      10.696  91.056  66.177  1.00  6.06    -0.271 OA
BRANCH  52  55
ATOM     55  CA  TRP B   6       9.138  89.274  64.739  1.00  0.00     0.181 C 
BRANCH  55  56
ATOM     56  CB  TRP B   6       8.493  88.821  63.428  1.00  0.00     0.075 C 
BRANCH  56  57
ATOM     57  CG  TRP B   6       6.996  88.847  63.475  1.00  0.00    -0.028 A 
ATOM     58  CD2 TRP B   6       6.100  88.069  62.671  1.00  0.00    -0.002 A 
ATOM     59  CE2 TRP B   6       4.791  88.411  63.058  1.00  0.00     0.042 A 
ATOM     60  CE3 TRP B   6       6.280  87.119  61.663  1.00  0.00     0.014 A 
ATOM     61  CZ2 TRP B   6       3.668  87.834  62.470  1.00  0.00     0.030 A 
ATOM     62  NE1 TRP B   6       4.886  89.352  64.050  1.00  0.00    -0.365 N 
ATOM     63  CH2 TRP B   6       3.871  86.907  61.485  1.00  0.00     0.002 A 
ATOM     64  CZ3 TRP B   6       5.163  86.547  61.080  1.00  0.00     0.001 A 
ATOM     65  HE1 TRP B   6       4.130  89.774  64.510  1.00  0.23     0.165 HD
ATOM     66  CD1 TRP B   6       6.213  89.608  64.294  1.00  0.00     0.096 A 
ENDBRANCH  56  57
ENDBRANCH  55  56
BRANCH  55  67
ATOM     67  C   TRP B   6       8.911  88.227  65.825  1.00  0.00     0.241 C 
ATOM     68  N   VAL B   7       8.647  88.696  67.042  1.00  6.11    -0.344 N 
ATOM     69  H   VAL B   7       8.611  89.664  67.182  1.00  0.23     0.163 HD
ATOM     70  O   TRP B   6       8.977  87.025  65.567  1.00  0.00    -0.271 OA
BRANCH  68  71
ATOM     71  CA  VAL B   7       8.413  87.805  68.171  1.00  5.65     0.189 C 
BRANCH  71  72
ATOM     72  CB  VAL B   7       8.858  88.456  69.496  1.00  1.15     0.010 C 
ATOM     73  CG1 VAL B   7      10.048  87.710  70.084  1.00  4.96     0.012 C 
ATOM     74  CG2 VAL B   7       9.191  89.925  69.287  1.00  9.83     0.012 C 
ENDBRANCH  71  72
BRANCH  71  75
ATOM     75  C   VAL B   7       6.940  87.421  68.274  1.00  4.44     0.197 C 
ATOM     76  OXT VAL B   7       6.654  86.265  68.647  1.00  0.00    -0.646 OA
ATOM     77  O   VAL B   7       6.085  88.283  67.980  1.00  0.00    -0.646 OA
ENDBRANCH  71  75
ENDBRANCH  68  71
ENDBRANCH  55  67
ENDBRANCH  52  55
ENDBRANCH  46  51
ENDBRANCH  43  46
ENDBRANCH   1  42
TORSDOF 31
ENDMDL
